1

   Abaqus 2020                                  Date 01-Mar-2023   Time 10:23:05
   For use by MONTANUNIVERSITAT LEOBEN under license from Dassault Systemes or its subsidiary.



                         The Abaqus Software is a product of:

                           Dassault Systemes SIMULIA Corp.
                           1301 Atwood Avenue, Suite 101W
                              Johnston, RI 02919, USA
 


                   The Abaqus Software is available only under license
                   from Dassault Systemes or its subsidiary and may be
                   used or reproduced only in accordance with the terms
                   of such license.
 
                          On machine kkv-lap-116 
                          you are authorized to run
                          Abaqus/Standard until 29-Feb-2024

                          Your site id is: 200000000002581 


 
                    For assistance or any other information you may
                    obtain contact information for your local office
                    from the world wide web at:

                      http://www.3ds.com/products/simulia/locations/

 
                * * * * * * * * * * * * * * * * * * * * * * * * * * * * * * 
                *                                                         * 
                *                   *****************                     * 
                *                   *  N O T I C E  *                     * 
                *                   *****************                     * 
                *                                                         * 
                *                                                         * 
                *                       Abaqus 2020                       * 
                *                                                         * 
                *          BUILD ID: 2019_09_13-19.49.31 163176           * 
                *                                                         * 
                *                                                         * 
                *  Please make sure you are using                         * 
                *  release Abaqus 2020 manuals                            * 
                *  plus the notes accompanying this release.              * 
                *                                                         * 
                *                                                         * 
                *                                                         * 
                *                                                         * 
                *                                                         * 
                *   This program may not be used for commercial purposes  * 
                *           without payment of a commercial fee.          * 
                *                                                         * 
                * * * * * * * * * * * * * * * * * * * * * * * * * * * * * * 


 



     PROCESSING PART, INSTANCE, AND ASSEMBLY INFORMATION
   *******************************************************


     END PROCESSING PART, INSTANCE, AND ASSEMBLY INFORMATION
   ***********************************************************


 ***NOTE: DUE TO EXCESSIVE REPORTING, THE ECHO OF THE *SURFACE OPTION IS BEING 
          SUPPRESSED.



     OPTIONS BEING PROCESSED
   ***************************


  *Heading
  *Node
  *Element, type=C3D4
  *Nset, nset=ASSEMBLY_BRICK01-TOP_ALL
  *Nset, nset=ASSEMBLY_BRICK01-TOP_BOTTOM
  *Nset, nset=ASSEMBLY_BRICK01-TOP_CONT-BOT
  *Nset, nset=ASSEMBLY_BRICK01-TOP_CONT-BOT-TOUCH
  *Nset, nset=ASSEMBLY_BRICK01-TOP_CONT-TOP-TOUCH
  *Nset, nset=ASSEMBLY_BRICK01-TOP_STUD-11
  *Nset, nset=ASSEMBLY_BRICK01-TOP_STUD-21
  *Nset, nset=ASSEMBLY_BRICK01-TOP_STUD-31
  *Nset, nset=ASSEMBLY_BRICK01-TOP_STUD-41
  *Nset, nset=ASSEMBLY_BRICK01-TOP_STUD-51
  *Nset, nset=ASSEMBLY_BRICK01-TOP_STUD-61
  *Nset, nset=ASSEMBLY_BRICK01-TOP_STUD-71
  *Nset, nset=ASSEMBLY_BRICK01-TOP_STUD-81
  *Nset, nset=ASSEMBLY_BRICK01-TOP_TIE
  *Nset, nset=ASSEMBLY_BRICK01-TOP_TOP-FACES
  *Elset, elset=ASSEMBLY_BRICK01-TOP_ALL
  *Elset, elset=ASSEMBLY_BRICK01-TOP_BOTTOM
  *Elset, elset=ASSEMBLY_BRICK01-TOP_CONT-BOT
  *Elset, elset=ASSEMBLY_BRICK01-TOP_CONT-BOT-TOUCH
  *Elset, elset=ASSEMBLY_BRICK01-TOP_CONT-TOP-TOUCH
  *Elset, elset=ASSEMBLY_BRICK01-TOP_STUD-11
  *Elset, elset=ASSEMBLY_BRICK01-TOP_STUD-21
  *Elset, elset=ASSEMBLY_BRICK01-TOP_STUD-31
  *Elset, elset=ASSEMBLY_BRICK01-TOP_STUD-41
  *Elset, elset=ASSEMBLY_BRICK01-TOP_STUD-51
  *Elset, elset=ASSEMBLY_BRICK01-TOP_STUD-61
  *Elset, elset=ASSEMBLY_BRICK01-TOP_STUD-71
  *Elset, elset=ASSEMBLY_BRICK01-TOP_STUD-81
  *Elset, elset=ASSEMBLY_BRICK01-TOP_TIE
  *Elset, elset=ASSEMBLY_BRICK01-TOP_TOP-FACES
  *Elset, elset=ASSEMBLY_BRICK01-TOP__CONTACT-BOT_S1
  *Elset, elset=ASSEMBLY_BRICK01-TOP__CONTACT-BOT_S2
  *Elset, elset=ASSEMBLY_BRICK01-TOP__CONTACT-BOT_S3
  *Elset, elset=ASSEMBLY_BRICK01-TOP__CONTACT-BOT_S4
  *Elset, elset=ASSEMBLY_BRICK01-TOP__CONTACT-TOP_S1
  *Elset, elset=ASSEMBLY_BRICK01-TOP__CONTACT-TOP_S2
  *Elset, elset=ASSEMBLY_BRICK01-TOP__CONTACT-TOP_S3
  *Elset, elset=ASSEMBLY_BRICK01-TOP__CONTACT-TOP_S4
  *Elset, elset=ASSEMBLY_BRICK01-TOP__TIE_S1
  *Elset, elset=ASSEMBLY_BRICK01-TOP__TIE_S2
  *Elset, elset=ASSEMBLY_BRICK01-TOP__TIE_S3
  *Elset, elset=ASSEMBLY_BRICK01-TOP__TIE_S4
  *Elset, elset=ASSEMBLY_BRICK01-TOP__X0_S1
  *Elset, elset=ASSEMBLY_BRICK01-TOP__X0_S2
  *Elset, elset=ASSEMBLY_BRICK01-TOP__X0_S3
  *Elset, elset=ASSEMBLY_BRICK01-TOP__X1_S1
  *Elset, elset=ASSEMBLY_BRICK01-TOP__X1_S2
  *Elset, elset=ASSEMBLY_BRICK01-TOP__X1_S3
  *Elset, elset=ASSEMBLY_BRICK01-TOP__X1_S4
  *Elset, elset=ASSEMBLY_BRICK01-TOP__Z0_S1
  *Elset, elset=ASSEMBLY_BRICK01-TOP__Z0_S2
  *Elset, elset=ASSEMBLY_BRICK01-TOP__Z0_S3
  *Elset, elset=ASSEMBLY_BRICK01-TOP__Z0_S4
  *Elset, elset=ASSEMBLY_BRICK01-TOP__Z1_S1
  *Elset, elset=ASSEMBLY_BRICK01-TOP__Z1_S2
  *Elset, elset=ASSEMBLY_BRICK01-TOP__Z1_S3
  *Elset, elset=ASSEMBLY_BRICK01-TOP__Z1_S4
  *Node
  *Element, type=C3D4
  *Nset, nset=ASSEMBLY_BRICK02-TOP_ALL
  *Nset, nset=ASSEMBLY_BRICK02-TOP_BOTTOM
  *Nset, nset=ASSEMBLY_BRICK02-TOP_CONT-BOT
  *Nset, nset=ASSEMBLY_BRICK02-TOP_CONT-BOT-TOUCH
  *Nset, nset=ASSEMBLY_BRICK02-TOP_CONT-TOP-TOUCH
  *Nset, nset=ASSEMBLY_BRICK02-TOP_STUD-11
  *Nset, nset=ASSEMBLY_BRICK02-TOP_STUD-21
  *Nset, nset=ASSEMBLY_BRICK02-TOP_TOP-FACES
  *Nset, nset=ASSEMBLY_BRICK02-TOP_X-N1522
  *Nset, nset=ASSEMBLY_BRICK02-TOP_X-N1533
  *Nset, nset=ASSEMBLY_BRICK02-TOP_X-N1538
  *Nset, nset=ASSEMBLY_BRICK02-TOP_X-N1549
  *Nset, nset=ASSEMBLY_BRICK02-TOP_X-N1554
  *Nset, nset=ASSEMBLY_BRICK02-TOP_X-N1559
  *Nset, nset=ASSEMBLY_BRICK02-TOP_X-N1564
  *Nset, nset=ASSEMBLY_BRICK02-TOP_X-N1575
  *Nset, nset=ASSEMBLY_BRICK02-TOP_X-N1580
  *Nset, nset=ASSEMBLY_BRICK02-TOP_X-N1591
  *Nset, nset=ASSEMBLY_BRICK02-TOP_X-N1596
  *Nset, nset=ASSEMBLY_BRICK02-TOP_X-N1601
  *Nset, nset=ASSEMBLY_BRICK02-TOP_X-N344
  *Nset, nset=ASSEMBLY_BRICK02-TOP_X-N355
  *Nset, nset=ASSEMBLY_BRICK02-TOP_X-N364
  *Nset, nset=ASSEMBLY_BRICK02-TOP_X-N371
  *Nset, nset=ASSEMBLY_BRICK02-TOP_X-N382
  *Nset, nset=ASSEMBLY_BRICK02-TOP_X-N387
  *Elset, elset=ASSEMBLY_BRICK02-TOP_ALL
  *Elset, elset=ASSEMBLY_BRICK02-TOP_BOTTOM
  *Elset, elset=ASSEMBLY_BRICK02-TOP_CONT-BOT
  *Elset, elset=ASSEMBLY_BRICK02-TOP_CONT-BOT-TOUCH
  *Elset, elset=ASSEMBLY_BRICK02-TOP_CONT-TOP-TOUCH
  *Elset, elset=ASSEMBLY_BRICK02-TOP_STUD-11
  *Elset, elset=ASSEMBLY_BRICK02-TOP_STUD-21
  *Elset, elset=ASSEMBLY_BRICK02-TOP_TOP-FACES
  *Elset, elset=ASSEMBLY_BRICK02-TOP__CONTACT-BOT_S1
  *Elset, elset=ASSEMBLY_BRICK02-TOP__CONTACT-BOT_S2
  *Elset, elset=ASSEMBLY_BRICK02-TOP__CONTACT-BOT_S3
  *Elset, elset=ASSEMBLY_BRICK02-TOP__CONTACT-BOT_S4
  *Elset, elset=ASSEMBLY_BRICK02-TOP__CONTACT-TOP_S1
  *Elset, elset=ASSEMBLY_BRICK02-TOP__CONTACT-TOP_S2
  *Elset, elset=ASSEMBLY_BRICK02-TOP__CONTACT-TOP_S3
  *Elset, elset=ASSEMBLY_BRICK02-TOP__CONTACT-TOP_S4
  *Elset, elset=ASSEMBLY_BRICK02-TOP__X0_S1
  *Elset, elset=ASSEMBLY_BRICK02-TOP__X0_S2
  *Elset, elset=ASSEMBLY_BRICK02-TOP__X0_S3
  *Elset, elset=ASSEMBLY_BRICK02-TOP__X0_S4
  *Elset, elset=ASSEMBLY_BRICK02-TOP__X1_S1
  *Elset, elset=ASSEMBLY_BRICK02-TOP__X1_S2
  *Elset, elset=ASSEMBLY_BRICK02-TOP__X1_S3
  *Elset, elset=ASSEMBLY_BRICK02-TOP__X1_S4
  *Elset, elset=ASSEMBLY_BRICK02-TOP__Z0_S1
  *Elset, elset=ASSEMBLY_BRICK02-TOP__Z0_S2
  *Elset, elset=ASSEMBLY_BRICK02-TOP__Z0_S3
  *Elset, elset=ASSEMBLY_BRICK02-TOP__Z0_S4
  *Elset, elset=ASSEMBLY_BRICK02-TOP__Z1_S1
  *Elset, elset=ASSEMBLY_BRICK02-TOP__Z1_S2
  *Elset, elset=ASSEMBLY_BRICK02-TOP__Z1_S3
  *Elset, elset=ASSEMBLY_BRICK02-TOP__Z1_S4
  *Node
  *Element, type=C3D4
  *Nset, nset=ASSEMBLY_BRICK03-TOP_ALL
  *Nset, nset=ASSEMBLY_BRICK03-TOP_BOTTOM
  *Nset, nset=ASSEMBLY_BRICK03-TOP_CONT-BOT
  *Nset, nset=ASSEMBLY_BRICK03-TOP_CONT-BOT-TOUCH
  *Nset, nset=ASSEMBLY_BRICK03-TOP_CONT-TOP-TOUCH
  *Nset, nset=ASSEMBLY_BRICK03-TOP_STUD-11
  *Nset, nset=ASSEMBLY_BRICK03-TOP_STUD-21
  *Nset, nset=ASSEMBLY_BRICK03-TOP_STUD-31
  *Nset, nset=ASSEMBLY_BRICK03-TOP_STUD-41
  *Nset, nset=ASSEMBLY_BRICK03-TOP_STUD-51
  *Nset, nset=ASSEMBLY_BRICK03-TOP_STUD-61
  *Nset, nset=ASSEMBLY_BRICK03-TOP_TOP-FACES
  *Nset, nset=ASSEMBLY_BRICK03-TOP_X-N1003
  *Nset, nset=ASSEMBLY_BRICK03-TOP_X-N1022
  *Nset, nset=ASSEMBLY_BRICK03-TOP_X-N1039
  *Nset, nset=ASSEMBLY_BRICK03-TOP_X-N1198
  *Nset, nset=ASSEMBLY_BRICK03-TOP_X-N1203
  *Nset, nset=ASSEMBLY_BRICK03-TOP_X-N4211
  *Nset, nset=ASSEMBLY_BRICK03-TOP_X-N4228
  *Nset, nset=ASSEMBLY_BRICK03-TOP_X-N4235
  *Nset, nset=ASSEMBLY_BRICK03-TOP_X-N4245
  *Nset, nset=ASSEMBLY_BRICK03-TOP_X-N4254
  *Nset, nset=ASSEMBLY_BRICK03-TOP_X-N4264
  *Nset, nset=ASSEMBLY_BRICK03-TOP_X-N4281
  *Nset, nset=ASSEMBLY_BRICK03-TOP_X-N4291
  *Nset, nset=ASSEMBLY_BRICK03-TOP_X-N4300
  *Nset, nset=ASSEMBLY_BRICK03-TOP_X-N4310
  *Nset, nset=ASSEMBLY_BRICK03-TOP_X-N4327
  *Nset, nset=ASSEMBLY_BRICK03-TOP_X-N4344
  *Nset, nset=ASSEMBLY_BRICK03-TOP_X-N4381
  *Nset, nset=ASSEMBLY_BRICK03-TOP_X-N4398
  *Nset, nset=ASSEMBLY_BRICK03-TOP_X-N4403
  *Nset, nset=ASSEMBLY_BRICK03-TOP_X-N4408
  *Nset, nset=ASSEMBLY_BRICK03-TOP_X-N4701
  *Nset, nset=ASSEMBLY_BRICK03-TOP_X-N4706
  *Nset, nset=ASSEMBLY_BRICK03-TOP_X-N4879
  *Nset, nset=ASSEMBLY_BRICK03-TOP_X-N4896
  *Nset, nset=ASSEMBLY_BRICK03-TOP_X-N910
  *Nset, nset=ASSEMBLY_BRICK03-TOP_X-N931
  *Nset, nset=ASSEMBLY_BRICK03-TOP_X-N941
  *Nset, nset=ASSEMBLY_BRICK03-TOP_X-N964
  *Nset, nset=ASSEMBLY_BRICK03-TOP_X-N974
  *Elset, elset=ASSEMBLY_BRICK03-TOP_ALL
  *Elset, elset=ASSEMBLY_BRICK03-TOP_BOTTOM
  *Elset, elset=ASSEMBLY_BRICK03-TOP_CONT-BOT
  *Elset, elset=ASSEMBLY_BRICK03-TOP_CONT-BOT-TOUCH
  *Elset, elset=ASSEMBLY_BRICK03-TOP_CONT-TOP-TOUCH
  *Elset, elset=ASSEMBLY_BRICK03-TOP_STUD-11
  *Elset, elset=ASSEMBLY_BRICK03-TOP_STUD-21
  *Elset, elset=ASSEMBLY_BRICK03-TOP_STUD-31
  *Elset, elset=ASSEMBLY_BRICK03-TOP_STUD-41
  *Elset, elset=ASSEMBLY_BRICK03-TOP_STUD-51
  *Elset, elset=ASSEMBLY_BRICK03-TOP_STUD-61
  *Elset, elset=ASSEMBLY_BRICK03-TOP_TOP-FACES
  *Elset, elset=ASSEMBLY_BRICK03-TOP__CONTACT-BOT_S1
  *Elset, elset=ASSEMBLY_BRICK03-TOP__CONTACT-BOT_S2
  *Elset, elset=ASSEMBLY_BRICK03-TOP__CONTACT-BOT_S3
  *Elset, elset=ASSEMBLY_BRICK03-TOP__CONTACT-BOT_S4
  *Elset, elset=ASSEMBLY_BRICK03-TOP__CONTACT-TOP_S1
  *Elset, elset=ASSEMBLY_BRICK03-TOP__CONTACT-TOP_S2
  *Elset, elset=ASSEMBLY_BRICK03-TOP__CONTACT-TOP_S3
  *Elset, elset=ASSEMBLY_BRICK03-TOP__CONTACT-TOP_S4
  *Elset, elset=ASSEMBLY_BRICK03-TOP__X0_S1
  *Elset, elset=ASSEMBLY_BRICK03-TOP__X0_S2
  *Elset, elset=ASSEMBLY_BRICK03-TOP__X0_S3
  *Elset, elset=ASSEMBLY_BRICK03-TOP__X0_S4
  *Elset, elset=ASSEMBLY_BRICK03-TOP__X1_S1
  *Elset, elset=ASSEMBLY_BRICK03-TOP__X1_S2
  *Elset, elset=ASSEMBLY_BRICK03-TOP__X1_S3
  *Elset, elset=ASSEMBLY_BRICK03-TOP__X1_S4
  *Elset, elset=ASSEMBLY_BRICK03-TOP__Z0_S1
  *Elset, elset=ASSEMBLY_BRICK03-TOP__Z0_S2
  *Elset, elset=ASSEMBLY_BRICK03-TOP__Z0_S3
  *Elset, elset=ASSEMBLY_BRICK03-TOP__Z0_S4
  *Elset, elset=ASSEMBLY_BRICK03-TOP__Z1_S1
  *Elset, elset=ASSEMBLY_BRICK03-TOP__Z1_S2
  *Elset, elset=ASSEMBLY_BRICK03-TOP__Z1_S3
  *Elset, elset=ASSEMBLY_BRICK03-TOP__Z1_S4
  *Node
  *Element, type=C3D4
  *Nset, nset=ASSEMBLY_BRICK04-TOP_ALL
  *Nset, nset=ASSEMBLY_BRICK04-TOP_BOTTOM
  *Nset, nset=ASSEMBLY_BRICK04-TOP_CONT-BOT
  *Nset, nset=ASSEMBLY_BRICK04-TOP_CONT-BOT-TOUCH
  *Nset, nset=ASSEMBLY_BRICK04-TOP_CONT-TOP-TOUCH
  *Nset, nset=ASSEMBLY_BRICK04-TOP_STUD-11
  *Nset, nset=ASSEMBLY_BRICK04-TOP_STUD-21
  *Nset, nset=ASSEMBLY_BRICK04-TOP_STUD-31
  *Nset, nset=ASSEMBLY_BRICK04-TOP_STUD-41
  *Nset, nset=ASSEMBLY_BRICK04-TOP_STUD-51
  *Nset, nset=ASSEMBLY_BRICK04-TOP_STUD-61
  *Nset, nset=ASSEMBLY_BRICK04-TOP_TOP-FACES
  *Nset, nset=ASSEMBLY_BRICK04-TOP_X-N1003
  *Nset, nset=ASSEMBLY_BRICK04-TOP_X-N1022
  *Nset, nset=ASSEMBLY_BRICK04-TOP_X-N1039
  *Nset, nset=ASSEMBLY_BRICK04-TOP_X-N1198
  *Nset, nset=ASSEMBLY_BRICK04-TOP_X-N1203
  *Nset, nset=ASSEMBLY_BRICK04-TOP_X-N4211
  *Nset, nset=ASSEMBLY_BRICK04-TOP_X-N4228
  *Nset, nset=ASSEMBLY_BRICK04-TOP_X-N4235
  *Nset, nset=ASSEMBLY_BRICK04-TOP_X-N4245
  *Nset, nset=ASSEMBLY_BRICK04-TOP_X-N4254
  *Nset, nset=ASSEMBLY_BRICK04-TOP_X-N4264
  *Nset, nset=ASSEMBLY_BRICK04-TOP_X-N4281
  *Nset, nset=ASSEMBLY_BRICK04-TOP_X-N4291
  *Nset, nset=ASSEMBLY_BRICK04-TOP_X-N4300
  *Nset, nset=ASSEMBLY_BRICK04-TOP_X-N4310
  *Nset, nset=ASSEMBLY_BRICK04-TOP_X-N4327
  *Nset, nset=ASSEMBLY_BRICK04-TOP_X-N4344
  *Nset, nset=ASSEMBLY_BRICK04-TOP_X-N4381
  *Nset, nset=ASSEMBLY_BRICK04-TOP_X-N4398
  *Nset, nset=ASSEMBLY_BRICK04-TOP_X-N4403
  *Nset, nset=ASSEMBLY_BRICK04-TOP_X-N4408
  *Nset, nset=ASSEMBLY_BRICK04-TOP_X-N4701
  *Nset, nset=ASSEMBLY_BRICK04-TOP_X-N4706
  *Nset, nset=ASSEMBLY_BRICK04-TOP_X-N4879
  *Nset, nset=ASSEMBLY_BRICK04-TOP_X-N4896
  *Nset, nset=ASSEMBLY_BRICK04-TOP_X-N910
  *Nset, nset=ASSEMBLY_BRICK04-TOP_X-N931
  *Nset, nset=ASSEMBLY_BRICK04-TOP_X-N941
  *Nset, nset=ASSEMBLY_BRICK04-TOP_X-N964
  *Nset, nset=ASSEMBLY_BRICK04-TOP_X-N974
  *Elset, elset=ASSEMBLY_BRICK04-TOP_ALL
  *Elset, elset=ASSEMBLY_BRICK04-TOP_BOTTOM
  *Elset, elset=ASSEMBLY_BRICK04-TOP_CONT-BOT
  *Elset, elset=ASSEMBLY_BRICK04-TOP_CONT-BOT-TOUCH
  *Elset, elset=ASSEMBLY_BRICK04-TOP_CONT-TOP-TOUCH
  *Elset, elset=ASSEMBLY_BRICK04-TOP_STUD-11
  *Elset, elset=ASSEMBLY_BRICK04-TOP_STUD-21
  *Elset, elset=ASSEMBLY_BRICK04-TOP_STUD-31
  *Elset, elset=ASSEMBLY_BRICK04-TOP_STUD-41
  *Elset, elset=ASSEMBLY_BRICK04-TOP_STUD-51
  *Elset, elset=ASSEMBLY_BRICK04-TOP_STUD-61
  *Elset, elset=ASSEMBLY_BRICK04-TOP_TOP-FACES
  *Elset, elset=ASSEMBLY_BRICK04-TOP__CONTACT-BOT_S1
  *Elset, elset=ASSEMBLY_BRICK04-TOP__CONTACT-BOT_S2
  *Elset, elset=ASSEMBLY_BRICK04-TOP__CONTACT-BOT_S3
  *Elset, elset=ASSEMBLY_BRICK04-TOP__CONTACT-BOT_S4
  *Elset, elset=ASSEMBLY_BRICK04-TOP__CONTACT-TOP_S1
  *Elset, elset=ASSEMBLY_BRICK04-TOP__CONTACT-TOP_S2
  *Elset, elset=ASSEMBLY_BRICK04-TOP__CONTACT-TOP_S3
  *Elset, elset=ASSEMBLY_BRICK04-TOP__CONTACT-TOP_S4
  *Elset, elset=ASSEMBLY_BRICK04-TOP__X0_S1
  *Elset, elset=ASSEMBLY_BRICK04-TOP__X0_S2
  *Elset, elset=ASSEMBLY_BRICK04-TOP__X0_S3
  *Elset, elset=ASSEMBLY_BRICK04-TOP__X0_S4
  *Elset, elset=ASSEMBLY_BRICK04-TOP__X1_S1
  *Elset, elset=ASSEMBLY_BRICK04-TOP__X1_S2
  *Elset, elset=ASSEMBLY_BRICK04-TOP__X1_S3
  *Elset, elset=ASSEMBLY_BRICK04-TOP__X1_S4
  *Elset, elset=ASSEMBLY_BRICK04-TOP__Z0_S1
  *Elset, elset=ASSEMBLY_BRICK04-TOP__Z0_S2
  *Elset, elset=ASSEMBLY_BRICK04-TOP__Z0_S3
  *Elset, elset=ASSEMBLY_BRICK04-TOP__Z0_S4
  *Elset, elset=ASSEMBLY_BRICK04-TOP__Z1_S1
  *Elset, elset=ASSEMBLY_BRICK04-TOP__Z1_S2
  *Elset, elset=ASSEMBLY_BRICK04-TOP__Z1_S3
  *Elset, elset=ASSEMBLY_BRICK04-TOP__Z1_S4
  *Node
  *Element, type=C3D4
  *Nset, nset=ASSEMBLY_BRICK05-TOP_ALL
  *Nset, nset=ASSEMBLY_BRICK05-TOP_BOTTOM
  *Nset, nset=ASSEMBLY_BRICK05-TOP_CONT-BOT
  *Nset, nset=ASSEMBLY_BRICK05-TOP_CONT-BOT-TOUCH
  *Nset, nset=ASSEMBLY_BRICK05-TOP_CONT-TOP-TOUCH
  *Nset, nset=ASSEMBLY_BRICK05-TOP_STUD-11
  *Nset, nset=ASSEMBLY_BRICK05-TOP_STUD-21
  *Nset, nset=ASSEMBLY_BRICK05-TOP_TOP-FACES
  *Nset, nset=ASSEMBLY_BRICK05-TOP_X-N1522
  *Nset, nset=ASSEMBLY_BRICK05-TOP_X-N1533
  *Nset, nset=ASSEMBLY_BRICK05-TOP_X-N1538
  *Nset, nset=ASSEMBLY_BRICK05-TOP_X-N1549
  *Nset, nset=ASSEMBLY_BRICK05-TOP_X-N1554
  *Nset, nset=ASSEMBLY_BRICK05-TOP_X-N1559
  *Nset, nset=ASSEMBLY_BRICK05-TOP_X-N1564
  *Nset, nset=ASSEMBLY_BRICK05-TOP_X-N1575
  *Nset, nset=ASSEMBLY_BRICK05-TOP_X-N1580
  *Nset, nset=ASSEMBLY_BRICK05-TOP_X-N1591
  *Nset, nset=ASSEMBLY_BRICK05-TOP_X-N1596
  *Nset, nset=ASSEMBLY_BRICK05-TOP_X-N1601
  *Nset, nset=ASSEMBLY_BRICK05-TOP_X-N344
  *Nset, nset=ASSEMBLY_BRICK05-TOP_X-N355
  *Nset, nset=ASSEMBLY_BRICK05-TOP_X-N364
  *Nset, nset=ASSEMBLY_BRICK05-TOP_X-N371
  *Nset, nset=ASSEMBLY_BRICK05-TOP_X-N382
  *Nset, nset=ASSEMBLY_BRICK05-TOP_X-N387
  *Elset, elset=ASSEMBLY_BRICK05-TOP_ALL
  *Elset, elset=ASSEMBLY_BRICK05-TOP_BOTTOM
  *Elset, elset=ASSEMBLY_BRICK05-TOP_CONT-BOT
  *Elset, elset=ASSEMBLY_BRICK05-TOP_CONT-BOT-TOUCH
  *Elset, elset=ASSEMBLY_BRICK05-TOP_CONT-TOP-TOUCH
  *Elset, elset=ASSEMBLY_BRICK05-TOP_STUD-11
  *Elset, elset=ASSEMBLY_BRICK05-TOP_STUD-21
  *Elset, elset=ASSEMBLY_BRICK05-TOP_TOP-FACES
  *Elset, elset=ASSEMBLY_BRICK05-TOP__CONTACT-BOT_S1
  *Elset, elset=ASSEMBLY_BRICK05-TOP__CONTACT-BOT_S2
  *Elset, elset=ASSEMBLY_BRICK05-TOP__CONTACT-BOT_S3
  *Elset, elset=ASSEMBLY_BRICK05-TOP__CONTACT-BOT_S4
  *Elset, elset=ASSEMBLY_BRICK05-TOP__CONTACT-TOP_S1
  *Elset, elset=ASSEMBLY_BRICK05-TOP__CONTACT-TOP_S2
  *Elset, elset=ASSEMBLY_BRICK05-TOP__CONTACT-TOP_S3
  *Elset, elset=ASSEMBLY_BRICK05-TOP__CONTACT-TOP_S4
  *Elset, elset=ASSEMBLY_BRICK05-TOP__X0_S1
  *Elset, elset=ASSEMBLY_BRICK05-TOP__X0_S2
  *Elset, elset=ASSEMBLY_BRICK05-TOP__X0_S3
  *Elset, elset=ASSEMBLY_BRICK05-TOP__X0_S4
  *Elset, elset=ASSEMBLY_BRICK05-TOP__X1_S1
  *Elset, elset=ASSEMBLY_BRICK05-TOP__X1_S2
  *Elset, elset=ASSEMBLY_BRICK05-TOP__X1_S3
  *Elset, elset=ASSEMBLY_BRICK05-TOP__X1_S4
  *Elset, elset=ASSEMBLY_BRICK05-TOP__Z0_S1
  *Elset, elset=ASSEMBLY_BRICK05-TOP__Z0_S2
  *Elset, elset=ASSEMBLY_BRICK05-TOP__Z0_S3
  *Elset, elset=ASSEMBLY_BRICK05-TOP__Z0_S4
  *Elset, elset=ASSEMBLY_BRICK05-TOP__Z1_S1
  *Elset, elset=ASSEMBLY_BRICK05-TOP__Z1_S2
  *Elset, elset=ASSEMBLY_BRICK05-TOP__Z1_S3
  *Elset, elset=ASSEMBLY_BRICK05-TOP__Z1_S4
  *Node
  *Element, type=C3D4
  *Nset, nset=ASSEMBLY_BRICK06-TOP_ALL
  *Nset, nset=ASSEMBLY_BRICK06-TOP_BOTTOM
  *Nset, nset=ASSEMBLY_BRICK06-TOP_CONT-BOT
  *Nset, nset=ASSEMBLY_BRICK06-TOP_CONT-BOT-TOUCH
  *Nset, nset=ASSEMBLY_BRICK06-TOP_CONT-TOP-TOUCH
  *Nset, nset=ASSEMBLY_BRICK06-TOP_STUD-11
  *Nset, nset=ASSEMBLY_BRICK06-TOP_STUD-21
  *Nset, nset=ASSEMBLY_BRICK06-TOP_TOP-FACES
  *Nset, nset=ASSEMBLY_BRICK06-TOP_X-N1522
  *Nset, nset=ASSEMBLY_BRICK06-TOP_X-N1533
  *Nset, nset=ASSEMBLY_BRICK06-TOP_X-N1538
  *Nset, nset=ASSEMBLY_BRICK06-TOP_X-N1549
  *Nset, nset=ASSEMBLY_BRICK06-TOP_X-N1554
  *Nset, nset=ASSEMBLY_BRICK06-TOP_X-N1559
  *Nset, nset=ASSEMBLY_BRICK06-TOP_X-N1564
  *Nset, nset=ASSEMBLY_BRICK06-TOP_X-N1575
  *Nset, nset=ASSEMBLY_BRICK06-TOP_X-N1580
  *Nset, nset=ASSEMBLY_BRICK06-TOP_X-N1591
  *Nset, nset=ASSEMBLY_BRICK06-TOP_X-N1596
  *Nset, nset=ASSEMBLY_BRICK06-TOP_X-N1601
  *Nset, nset=ASSEMBLY_BRICK06-TOP_X-N344
  *Nset, nset=ASSEMBLY_BRICK06-TOP_X-N355
  *Nset, nset=ASSEMBLY_BRICK06-TOP_X-N364
  *Nset, nset=ASSEMBLY_BRICK06-TOP_X-N371
  *Nset, nset=ASSEMBLY_BRICK06-TOP_X-N382
  *Nset, nset=ASSEMBLY_BRICK06-TOP_X-N387
  *Elset, elset=ASSEMBLY_BRICK06-TOP_ALL
  *Elset, elset=ASSEMBLY_BRICK06-TOP_BOTTOM
  *Elset, elset=ASSEMBLY_BRICK06-TOP_CONT-BOT
  *Elset, elset=ASSEMBLY_BRICK06-TOP_CONT-BOT-TOUCH
  *Elset, elset=ASSEMBLY_BRICK06-TOP_CONT-TOP-TOUCH
  *Elset, elset=ASSEMBLY_BRICK06-TOP_STUD-11
  *Elset, elset=ASSEMBLY_BRICK06-TOP_STUD-21
  *Elset, elset=ASSEMBLY_BRICK06-TOP_TOP-FACES
  *Elset, elset=ASSEMBLY_BRICK06-TOP__CONTACT-BOT_S1
  *Elset, elset=ASSEMBLY_BRICK06-TOP__CONTACT-BOT_S2
  *Elset, elset=ASSEMBLY_BRICK06-TOP__CONTACT-BOT_S3
  *Elset, elset=ASSEMBLY_BRICK06-TOP__CONTACT-BOT_S4
  *Elset, elset=ASSEMBLY_BRICK06-TOP__CONTACT-TOP_S1
  *Elset, elset=ASSEMBLY_BRICK06-TOP__CONTACT-TOP_S2
  *Elset, elset=ASSEMBLY_BRICK06-TOP__CONTACT-TOP_S3
  *Elset, elset=ASSEMBLY_BRICK06-TOP__CONTACT-TOP_S4
  *Elset, elset=ASSEMBLY_BRICK06-TOP__X0_S1
  *Elset, elset=ASSEMBLY_BRICK06-TOP__X0_S2
  *Elset, elset=ASSEMBLY_BRICK06-TOP__X0_S3
  *Elset, elset=ASSEMBLY_BRICK06-TOP__X0_S4
  *Elset, elset=ASSEMBLY_BRICK06-TOP__X1_S1
  *Elset, elset=ASSEMBLY_BRICK06-TOP__X1_S2
  *Elset, elset=ASSEMBLY_BRICK06-TOP__X1_S3
  *Elset, elset=ASSEMBLY_BRICK06-TOP__X1_S4
  *Elset, elset=ASSEMBLY_BRICK06-TOP__Z0_S1
  *Elset, elset=ASSEMBLY_BRICK06-TOP__Z0_S2
  *Elset, elset=ASSEMBLY_BRICK06-TOP__Z0_S3
  *Elset, elset=ASSEMBLY_BRICK06-TOP__Z0_S4
  *Elset, elset=ASSEMBLY_BRICK06-TOP__Z1_S1
  *Elset, elset=ASSEMBLY_BRICK06-TOP__Z1_S2
  *Elset, elset=ASSEMBLY_BRICK06-TOP__Z1_S3
  *Elset, elset=ASSEMBLY_BRICK06-TOP__Z1_S4
  *Node
  *Element, type=C3D4
  *Nset, nset=ASSEMBLY_BRICK07-TOP_ALL
  *Nset, nset=ASSEMBLY_BRICK07-TOP_BOTTOM
  *Nset, nset=ASSEMBLY_BRICK07-TOP_CONT-BOT
  *Nset, nset=ASSEMBLY_BRICK07-TOP_CONT-BOT-TOUCH
  *Nset, nset=ASSEMBLY_BRICK07-TOP_CONT-TOP-TOUCH
  *Nset, nset=ASSEMBLY_BRICK07-TOP_STUD-11
  *Nset, nset=ASSEMBLY_BRICK07-TOP_STUD-21
  *Nset, nset=ASSEMBLY_BRICK07-TOP_STUD-31
  *Nset, nset=ASSEMBLY_BRICK07-TOP_STUD-41
  *Nset, nset=ASSEMBLY_BRICK07-TOP_STUD-51
  *Nset, nset=ASSEMBLY_BRICK07-TOP_STUD-61
  *Nset, nset=ASSEMBLY_BRICK07-TOP_TOP-FACES
  *Nset, nset=ASSEMBLY_BRICK07-TOP_X-N1003
  *Nset, nset=ASSEMBLY_BRICK07-TOP_X-N1022
  *Nset, nset=ASSEMBLY_BRICK07-TOP_X-N1039
  *Nset, nset=ASSEMBLY_BRICK07-TOP_X-N1198
  *Nset, nset=ASSEMBLY_BRICK07-TOP_X-N1203
  *Nset, nset=ASSEMBLY_BRICK07-TOP_X-N4211
  *Nset, nset=ASSEMBLY_BRICK07-TOP_X-N4228
  *Nset, nset=ASSEMBLY_BRICK07-TOP_X-N4235
  *Nset, nset=ASSEMBLY_BRICK07-TOP_X-N4245
  *Nset, nset=ASSEMBLY_BRICK07-TOP_X-N4254
  *Nset, nset=ASSEMBLY_BRICK07-TOP_X-N4264
  *Nset, nset=ASSEMBLY_BRICK07-TOP_X-N4281
  *Nset, nset=ASSEMBLY_BRICK07-TOP_X-N4291
  *Nset, nset=ASSEMBLY_BRICK07-TOP_X-N4300
  *Nset, nset=ASSEMBLY_BRICK07-TOP_X-N4310
  *Nset, nset=ASSEMBLY_BRICK07-TOP_X-N4327
  *Nset, nset=ASSEMBLY_BRICK07-TOP_X-N4344
  *Nset, nset=ASSEMBLY_BRICK07-TOP_X-N4381
  *Nset, nset=ASSEMBLY_BRICK07-TOP_X-N4398
  *Nset, nset=ASSEMBLY_BRICK07-TOP_X-N4403
  *Nset, nset=ASSEMBLY_BRICK07-TOP_X-N4408
  *Nset, nset=ASSEMBLY_BRICK07-TOP_X-N4701
  *Nset, nset=ASSEMBLY_BRICK07-TOP_X-N4706
  *Nset, nset=ASSEMBLY_BRICK07-TOP_X-N4879
  *Nset, nset=ASSEMBLY_BRICK07-TOP_X-N4896
  *Nset, nset=ASSEMBLY_BRICK07-TOP_X-N910
  *Nset, nset=ASSEMBLY_BRICK07-TOP_X-N931
  *Nset, nset=ASSEMBLY_BRICK07-TOP_X-N941
  *Nset, nset=ASSEMBLY_BRICK07-TOP_X-N964
  *Nset, nset=ASSEMBLY_BRICK07-TOP_X-N974
  *Elset, elset=ASSEMBLY_BRICK07-TOP_ALL
  *Elset, elset=ASSEMBLY_BRICK07-TOP_BOTTOM
  *Elset, elset=ASSEMBLY_BRICK07-TOP_CONT-BOT
  *Elset, elset=ASSEMBLY_BRICK07-TOP_CONT-BOT-TOUCH
  *Elset, elset=ASSEMBLY_BRICK07-TOP_CONT-TOP-TOUCH
  *Elset, elset=ASSEMBLY_BRICK07-TOP_STUD-11
  *Elset, elset=ASSEMBLY_BRICK07-TOP_STUD-21
  *Elset, elset=ASSEMBLY_BRICK07-TOP_STUD-31
  *Elset, elset=ASSEMBLY_BRICK07-TOP_STUD-41
  *Elset, elset=ASSEMBLY_BRICK07-TOP_STUD-51
  *Elset, elset=ASSEMBLY_BRICK07-TOP_STUD-61
  *Elset, elset=ASSEMBLY_BRICK07-TOP_TOP-FACES
  *Elset, elset=ASSEMBLY_BRICK07-TOP__CONTACT-BOT_S1
  *Elset, elset=ASSEMBLY_BRICK07-TOP__CONTACT-BOT_S2
  *Elset, elset=ASSEMBLY_BRICK07-TOP__CONTACT-BOT_S3
  *Elset, elset=ASSEMBLY_BRICK07-TOP__CONTACT-BOT_S4
  *Elset, elset=ASSEMBLY_BRICK07-TOP__CONTACT-TOP_S1
  *Elset, elset=ASSEMBLY_BRICK07-TOP__CONTACT-TOP_S2
  *Elset, elset=ASSEMBLY_BRICK07-TOP__CONTACT-TOP_S3
  *Elset, elset=ASSEMBLY_BRICK07-TOP__CONTACT-TOP_S4
  *Elset, elset=ASSEMBLY_BRICK07-TOP__X0_S1
  *Elset, elset=ASSEMBLY_BRICK07-TOP__X0_S2
  *Elset, elset=ASSEMBLY_BRICK07-TOP__X0_S3
  *Elset, elset=ASSEMBLY_BRICK07-TOP__X0_S4
  *Elset, elset=ASSEMBLY_BRICK07-TOP__X1_S1
  *Elset, elset=ASSEMBLY_BRICK07-TOP__X1_S2
  *Elset, elset=ASSEMBLY_BRICK07-TOP__X1_S3
  *Elset, elset=ASSEMBLY_BRICK07-TOP__X1_S4
  *Elset, elset=ASSEMBLY_BRICK07-TOP__Z0_S1
  *Elset, elset=ASSEMBLY_BRICK07-TOP__Z0_S2
  *Elset, elset=ASSEMBLY_BRICK07-TOP__Z0_S3
  *Elset, elset=ASSEMBLY_BRICK07-TOP__Z0_S4
  *Elset, elset=ASSEMBLY_BRICK07-TOP__Z1_S1
  *Elset, elset=ASSEMBLY_BRICK07-TOP__Z1_S2
  *Elset, elset=ASSEMBLY_BRICK07-TOP__Z1_S3
  *Elset, elset=ASSEMBLY_BRICK07-TOP__Z1_S4
  *Node
  *Element, type=C3D4
  *Nset, nset=ASSEMBLY_BRICK08-TOP_ALL
  *Nset, nset=ASSEMBLY_BRICK08-TOP_BOTTOM
  *Nset, nset=ASSEMBLY_BRICK08-TOP_CONT-BOT
  *Nset, nset=ASSEMBLY_BRICK08-TOP_CONT-BOT-TOUCH
  *Nset, nset=ASSEMBLY_BRICK08-TOP_CONT-TOP-TOUCH
  *Nset, nset=ASSEMBLY_BRICK08-TOP_STUD-11
  *Nset, nset=ASSEMBLY_BRICK08-TOP_STUD-21
  *Nset, nset=ASSEMBLY_BRICK08-TOP_STUD-31
  *Nset, nset=ASSEMBLY_BRICK08-TOP_STUD-41
  *Nset, nset=ASSEMBLY_BRICK08-TOP_STUD-51
  *Nset, nset=ASSEMBLY_BRICK08-TOP_STUD-61
  *Nset, nset=ASSEMBLY_BRICK08-TOP_TOP-FACES
  *Nset, nset=ASSEMBLY_BRICK08-TOP_X-N1003
  *Nset, nset=ASSEMBLY_BRICK08-TOP_X-N1022
  *Nset, nset=ASSEMBLY_BRICK08-TOP_X-N1039
  *Nset, nset=ASSEMBLY_BRICK08-TOP_X-N1198
  *Nset, nset=ASSEMBLY_BRICK08-TOP_X-N1203
  *Nset, nset=ASSEMBLY_BRICK08-TOP_X-N4211
  *Nset, nset=ASSEMBLY_BRICK08-TOP_X-N4228
  *Nset, nset=ASSEMBLY_BRICK08-TOP_X-N4235
  *Nset, nset=ASSEMBLY_BRICK08-TOP_X-N4245
  *Nset, nset=ASSEMBLY_BRICK08-TOP_X-N4254
  *Nset, nset=ASSEMBLY_BRICK08-TOP_X-N4264
  *Nset, nset=ASSEMBLY_BRICK08-TOP_X-N4281
  *Nset, nset=ASSEMBLY_BRICK08-TOP_X-N4291
  *Nset, nset=ASSEMBLY_BRICK08-TOP_X-N4300
  *Nset, nset=ASSEMBLY_BRICK08-TOP_X-N4310
  *Nset, nset=ASSEMBLY_BRICK08-TOP_X-N4327
  *Nset, nset=ASSEMBLY_BRICK08-TOP_X-N4344
  *Nset, nset=ASSEMBLY_BRICK08-TOP_X-N4381
  *Nset, nset=ASSEMBLY_BRICK08-TOP_X-N4398
  *Nset, nset=ASSEMBLY_BRICK08-TOP_X-N4403
  *Nset, nset=ASSEMBLY_BRICK08-TOP_X-N4408
  *Nset, nset=ASSEMBLY_BRICK08-TOP_X-N4701
  *Nset, nset=ASSEMBLY_BRICK08-TOP_X-N4706
  *Nset, nset=ASSEMBLY_BRICK08-TOP_X-N4879
  *Nset, nset=ASSEMBLY_BRICK08-TOP_X-N4896
  *Nset, nset=ASSEMBLY_BRICK08-TOP_X-N910
  *Nset, nset=ASSEMBLY_BRICK08-TOP_X-N931
  *Nset, nset=ASSEMBLY_BRICK08-TOP_X-N941
  *Nset, nset=ASSEMBLY_BRICK08-TOP_X-N964
  *Nset, nset=ASSEMBLY_BRICK08-TOP_X-N974
  *Elset, elset=ASSEMBLY_BRICK08-TOP_ALL
  *Elset, elset=ASSEMBLY_BRICK08-TOP_BOTTOM
  *Elset, elset=ASSEMBLY_BRICK08-TOP_CONT-BOT
  *Elset, elset=ASSEMBLY_BRICK08-TOP_CONT-BOT-TOUCH
  *Elset, elset=ASSEMBLY_BRICK08-TOP_CONT-TOP-TOUCH
  *Elset, elset=ASSEMBLY_BRICK08-TOP_STUD-11
  *Elset, elset=ASSEMBLY_BRICK08-TOP_STUD-21
  *Elset, elset=ASSEMBLY_BRICK08-TOP_STUD-31
  *Elset, elset=ASSEMBLY_BRICK08-TOP_STUD-41
  *Elset, elset=ASSEMBLY_BRICK08-TOP_STUD-51
  *Elset, elset=ASSEMBLY_BRICK08-TOP_STUD-61
  *Elset, elset=ASSEMBLY_BRICK08-TOP_TOP-FACES
  *Elset, elset=ASSEMBLY_BRICK08-TOP__CONTACT-BOT_S1
  *Elset, elset=ASSEMBLY_BRICK08-TOP__CONTACT-BOT_S2
  *Elset, elset=ASSEMBLY_BRICK08-TOP__CONTACT-BOT_S3
  *Elset, elset=ASSEMBLY_BRICK08-TOP__CONTACT-BOT_S4
  *Elset, elset=ASSEMBLY_BRICK08-TOP__CONTACT-TOP_S1
  *Elset, elset=ASSEMBLY_BRICK08-TOP__CONTACT-TOP_S2
  *Elset, elset=ASSEMBLY_BRICK08-TOP__CONTACT-TOP_S3
  *Elset, elset=ASSEMBLY_BRICK08-TOP__CONTACT-TOP_S4
  *Elset, elset=ASSEMBLY_BRICK08-TOP__X0_S1
  *Elset, elset=ASSEMBLY_BRICK08-TOP__X0_S2
  *Elset, elset=ASSEMBLY_BRICK08-TOP__X0_S3
  *Elset, elset=ASSEMBLY_BRICK08-TOP__X0_S4
  *Elset, elset=ASSEMBLY_BRICK08-TOP__X1_S1
  *Elset, elset=ASSEMBLY_BRICK08-TOP__X1_S2
  *Elset, elset=ASSEMBLY_BRICK08-TOP__X1_S3
  *Elset, elset=ASSEMBLY_BRICK08-TOP__X1_S4
  *Elset, elset=ASSEMBLY_BRICK08-TOP__Z0_S1
  *Elset, elset=ASSEMBLY_BRICK08-TOP__Z0_S2
  *Elset, elset=ASSEMBLY_BRICK08-TOP__Z0_S3
  *Elset, elset=ASSEMBLY_BRICK08-TOP__Z0_S4
  *Elset, elset=ASSEMBLY_BRICK08-TOP__Z1_S1
  *Elset, elset=ASSEMBLY_BRICK08-TOP__Z1_S2
  *Elset, elset=ASSEMBLY_BRICK08-TOP__Z1_S3
  *Elset, elset=ASSEMBLY_BRICK08-TOP__Z1_S4
  *Node
  *Element, type=C3D4
  *Nset, nset=ASSEMBLY_BRICK09-TOP_ALL
  *Nset, nset=ASSEMBLY_BRICK09-TOP_BOTTOM
  *Nset, nset=ASSEMBLY_BRICK09-TOP_CONT-BOT
  *Nset, nset=ASSEMBLY_BRICK09-TOP_CONT-BOT-TOUCH
  *Nset, nset=ASSEMBLY_BRICK09-TOP_CONT-TOP-TOUCH
  *Nset, nset=ASSEMBLY_BRICK09-TOP_STUD-11
  *Nset, nset=ASSEMBLY_BRICK09-TOP_STUD-21
  *Nset, nset=ASSEMBLY_BRICK09-TOP_TOP-FACES
  *Nset, nset=ASSEMBLY_BRICK09-TOP_X-N1522
  *Nset, nset=ASSEMBLY_BRICK09-TOP_X-N1533
  *Nset, nset=ASSEMBLY_BRICK09-TOP_X-N1538
  *Nset, nset=ASSEMBLY_BRICK09-TOP_X-N1549
  *Nset, nset=ASSEMBLY_BRICK09-TOP_X-N1554
  *Nset, nset=ASSEMBLY_BRICK09-TOP_X-N1559
  *Nset, nset=ASSEMBLY_BRICK09-TOP_X-N1564
  *Nset, nset=ASSEMBLY_BRICK09-TOP_X-N1575
  *Nset, nset=ASSEMBLY_BRICK09-TOP_X-N1580
  *Nset, nset=ASSEMBLY_BRICK09-TOP_X-N1591
  *Nset, nset=ASSEMBLY_BRICK09-TOP_X-N1596
  *Nset, nset=ASSEMBLY_BRICK09-TOP_X-N1601
  *Nset, nset=ASSEMBLY_BRICK09-TOP_X-N344
  *Nset, nset=ASSEMBLY_BRICK09-TOP_X-N355
  *Nset, nset=ASSEMBLY_BRICK09-TOP_X-N364
  *Nset, nset=ASSEMBLY_BRICK09-TOP_X-N371
  *Nset, nset=ASSEMBLY_BRICK09-TOP_X-N382
  *Nset, nset=ASSEMBLY_BRICK09-TOP_X-N387
  *Elset, elset=ASSEMBLY_BRICK09-TOP_ALL
  *Elset, elset=ASSEMBLY_BRICK09-TOP_BOTTOM
  *Elset, elset=ASSEMBLY_BRICK09-TOP_CONT-BOT
  *Elset, elset=ASSEMBLY_BRICK09-TOP_CONT-BOT-TOUCH
  *Elset, elset=ASSEMBLY_BRICK09-TOP_CONT-TOP-TOUCH
  *Elset, elset=ASSEMBLY_BRICK09-TOP_STUD-11
  *Elset, elset=ASSEMBLY_BRICK09-TOP_STUD-21
  *Elset, elset=ASSEMBLY_BRICK09-TOP_TOP-FACES
  *Elset, elset=ASSEMBLY_BRICK09-TOP__CONTACT-BOT_S1
  *Elset, elset=ASSEMBLY_BRICK09-TOP__CONTACT-BOT_S2
  *Elset, elset=ASSEMBLY_BRICK09-TOP__CONTACT-BOT_S3
  *Elset, elset=ASSEMBLY_BRICK09-TOP__CONTACT-BOT_S4
  *Elset, elset=ASSEMBLY_BRICK09-TOP__CONTACT-TOP_S1
  *Elset, elset=ASSEMBLY_BRICK09-TOP__CONTACT-TOP_S2
  *Elset, elset=ASSEMBLY_BRICK09-TOP__CONTACT-TOP_S3
  *Elset, elset=ASSEMBLY_BRICK09-TOP__CONTACT-TOP_S4
  *Elset, elset=ASSEMBLY_BRICK09-TOP__X0_S1
  *Elset, elset=ASSEMBLY_BRICK09-TOP__X0_S2
  *Elset, elset=ASSEMBLY_BRICK09-TOP__X0_S3
  *Elset, elset=ASSEMBLY_BRICK09-TOP__X0_S4
  *Elset, elset=ASSEMBLY_BRICK09-TOP__X1_S1
  *Elset, elset=ASSEMBLY_BRICK09-TOP__X1_S2
  *Elset, elset=ASSEMBLY_BRICK09-TOP__X1_S3
  *Elset, elset=ASSEMBLY_BRICK09-TOP__X1_S4
  *Elset, elset=ASSEMBLY_BRICK09-TOP__Z0_S1
  *Elset, elset=ASSEMBLY_BRICK09-TOP__Z0_S2
  *Elset, elset=ASSEMBLY_BRICK09-TOP__Z0_S3
  *Elset, elset=ASSEMBLY_BRICK09-TOP__Z0_S4
  *Elset, elset=ASSEMBLY_BRICK09-TOP__Z1_S1
  *Elset, elset=ASSEMBLY_BRICK09-TOP__Z1_S2
  *Elset, elset=ASSEMBLY_BRICK09-TOP__Z1_S3
  *Elset, elset=ASSEMBLY_BRICK09-TOP__Z1_S4
  *Node
  *Element, type=C3D4
  *Nset, nset=ASSEMBLY_BRICK10-TOP_ALL
  *Nset, nset=ASSEMBLY_BRICK10-TOP_BOTTOM
  *Nset, nset=ASSEMBLY_BRICK10-TOP_CONT-BOT
  *Nset, nset=ASSEMBLY_BRICK10-TOP_CONT-BOT-TOUCH
  *Nset, nset=ASSEMBLY_BRICK10-TOP_CONT-TOP-TOUCH
  *Nset, nset=ASSEMBLY_BRICK10-TOP_STUD-11
  *Nset, nset=ASSEMBLY_BRICK10-TOP_STUD-21
  *Nset, nset=ASSEMBLY_BRICK10-TOP_TOP-FACES
  *Nset, nset=ASSEMBLY_BRICK10-TOP_X-N1522
  *Nset, nset=ASSEMBLY_BRICK10-TOP_X-N1533
  *Nset, nset=ASSEMBLY_BRICK10-TOP_X-N1538
  *Nset, nset=ASSEMBLY_BRICK10-TOP_X-N1549
  *Nset, nset=ASSEMBLY_BRICK10-TOP_X-N1554
  *Nset, nset=ASSEMBLY_BRICK10-TOP_X-N1559
  *Nset, nset=ASSEMBLY_BRICK10-TOP_X-N1564
  *Nset, nset=ASSEMBLY_BRICK10-TOP_X-N1575
  *Nset, nset=ASSEMBLY_BRICK10-TOP_X-N1580
  *Nset, nset=ASSEMBLY_BRICK10-TOP_X-N1591
  *Nset, nset=ASSEMBLY_BRICK10-TOP_X-N1596
  *Nset, nset=ASSEMBLY_BRICK10-TOP_X-N1601
  *Nset, nset=ASSEMBLY_BRICK10-TOP_X-N344
  *Nset, nset=ASSEMBLY_BRICK10-TOP_X-N355
  *Nset, nset=ASSEMBLY_BRICK10-TOP_X-N364
  *Nset, nset=ASSEMBLY_BRICK10-TOP_X-N371
  *Nset, nset=ASSEMBLY_BRICK10-TOP_X-N382
  *Nset, nset=ASSEMBLY_BRICK10-TOP_X-N387
  *Elset, elset=ASSEMBLY_BRICK10-TOP_ALL
  *Elset, elset=ASSEMBLY_BRICK10-TOP_BOTTOM
  *Elset, elset=ASSEMBLY_BRICK10-TOP_CONT-BOT
  *Elset, elset=ASSEMBLY_BRICK10-TOP_CONT-BOT-TOUCH
  *Elset, elset=ASSEMBLY_BRICK10-TOP_CONT-TOP-TOUCH
  *Elset, elset=ASSEMBLY_BRICK10-TOP_STUD-11
  *Elset, elset=ASSEMBLY_BRICK10-TOP_STUD-21
  *Elset, elset=ASSEMBLY_BRICK10-TOP_TOP-FACES
  *Elset, elset=ASSEMBLY_BRICK10-TOP__CONTACT-BOT_S1
  *Elset, elset=ASSEMBLY_BRICK10-TOP__CONTACT-BOT_S2
  *Elset, elset=ASSEMBLY_BRICK10-TOP__CONTACT-BOT_S3
  *Elset, elset=ASSEMBLY_BRICK10-TOP__CONTACT-BOT_S4
  *Elset, elset=ASSEMBLY_BRICK10-TOP__CONTACT-TOP_S1
  *Elset, elset=ASSEMBLY_BRICK10-TOP__CONTACT-TOP_S2
  *Elset, elset=ASSEMBLY_BRICK10-TOP__CONTACT-TOP_S3
  *Elset, elset=ASSEMBLY_BRICK10-TOP__CONTACT-TOP_S4
  *Elset, elset=ASSEMBLY_BRICK10-TOP__X0_S1
  *Elset, elset=ASSEMBLY_BRICK10-TOP__X0_S2
  *Elset, elset=ASSEMBLY_BRICK10-TOP__X0_S3
  *Elset, elset=ASSEMBLY_BRICK10-TOP__X0_S4
  *Elset, elset=ASSEMBLY_BRICK10-TOP__X1_S1
  *Elset, elset=ASSEMBLY_BRICK10-TOP__X1_S2
  *Elset, elset=ASSEMBLY_BRICK10-TOP__X1_S3
  *Elset, elset=ASSEMBLY_BRICK10-TOP__X1_S4
  *Elset, elset=ASSEMBLY_BRICK10-TOP__Z0_S1
  *Elset, elset=ASSEMBLY_BRICK10-TOP__Z0_S2
  *Elset, elset=ASSEMBLY_BRICK10-TOP__Z0_S3
  *Elset, elset=ASSEMBLY_BRICK10-TOP__Z0_S4
  *Elset, elset=ASSEMBLY_BRICK10-TOP__Z1_S1
  *Elset, elset=ASSEMBLY_BRICK10-TOP__Z1_S2
  *Elset, elset=ASSEMBLY_BRICK10-TOP__Z1_S3
  *Elset, elset=ASSEMBLY_BRICK10-TOP__Z1_S4
  *Node
  *Element, type=C3D4
  *Nset, nset=ASSEMBLY_BRICK11-TOP_ALL
  *Nset, nset=ASSEMBLY_BRICK11-TOP_BOTTOM
  *Nset, nset=ASSEMBLY_BRICK11-TOP_CONT-BOT
  *Nset, nset=ASSEMBLY_BRICK11-TOP_CONT-BOT-TOUCH
  *Nset, nset=ASSEMBLY_BRICK11-TOP_CONT-TOP-TOUCH
  *Nset, nset=ASSEMBLY_BRICK11-TOP_STUD-11
  *Nset, nset=ASSEMBLY_BRICK11-TOP_STUD-21
  *Nset, nset=ASSEMBLY_BRICK11-TOP_STUD-31
  *Nset, nset=ASSEMBLY_BRICK11-TOP_STUD-41
  *Nset, nset=ASSEMBLY_BRICK11-TOP_STUD-51
  *Nset, nset=ASSEMBLY_BRICK11-TOP_STUD-61
  *Nset, nset=ASSEMBLY_BRICK11-TOP_TOP-FACES
  *Nset, nset=ASSEMBLY_BRICK11-TOP_X-N1003
  *Nset, nset=ASSEMBLY_BRICK11-TOP_X-N1022
  *Nset, nset=ASSEMBLY_BRICK11-TOP_X-N1039
  *Nset, nset=ASSEMBLY_BRICK11-TOP_X-N1198
  *Nset, nset=ASSEMBLY_BRICK11-TOP_X-N1203
  *Nset, nset=ASSEMBLY_BRICK11-TOP_X-N4211
  *Nset, nset=ASSEMBLY_BRICK11-TOP_X-N4228
  *Nset, nset=ASSEMBLY_BRICK11-TOP_X-N4235
  *Nset, nset=ASSEMBLY_BRICK11-TOP_X-N4245
  *Nset, nset=ASSEMBLY_BRICK11-TOP_X-N4254
  *Nset, nset=ASSEMBLY_BRICK11-TOP_X-N4264
  *Nset, nset=ASSEMBLY_BRICK11-TOP_X-N4281
  *Nset, nset=ASSEMBLY_BRICK11-TOP_X-N4291
  *Nset, nset=ASSEMBLY_BRICK11-TOP_X-N4300
  *Nset, nset=ASSEMBLY_BRICK11-TOP_X-N4310
  *Nset, nset=ASSEMBLY_BRICK11-TOP_X-N4327
  *Nset, nset=ASSEMBLY_BRICK11-TOP_X-N4344
  *Nset, nset=ASSEMBLY_BRICK11-TOP_X-N4381
  *Nset, nset=ASSEMBLY_BRICK11-TOP_X-N4398
  *Nset, nset=ASSEMBLY_BRICK11-TOP_X-N4403
  *Nset, nset=ASSEMBLY_BRICK11-TOP_X-N4408
  *Nset, nset=ASSEMBLY_BRICK11-TOP_X-N4701
  *Nset, nset=ASSEMBLY_BRICK11-TOP_X-N4706
  *Nset, nset=ASSEMBLY_BRICK11-TOP_X-N4879
  *Nset, nset=ASSEMBLY_BRICK11-TOP_X-N4896
  *Nset, nset=ASSEMBLY_BRICK11-TOP_X-N910
  *Nset, nset=ASSEMBLY_BRICK11-TOP_X-N931
  *Nset, nset=ASSEMBLY_BRICK11-TOP_X-N941
  *Nset, nset=ASSEMBLY_BRICK11-TOP_X-N964
  *Nset, nset=ASSEMBLY_BRICK11-TOP_X-N974
  *Elset, elset=ASSEMBLY_BRICK11-TOP_ALL
  *Elset, elset=ASSEMBLY_BRICK11-TOP_BOTTOM
  *Elset, elset=ASSEMBLY_BRICK11-TOP_CONT-BOT
  *Elset, elset=ASSEMBLY_BRICK11-TOP_CONT-BOT-TOUCH
  *Elset, elset=ASSEMBLY_BRICK11-TOP_CONT-TOP-TOUCH
  *Elset, elset=ASSEMBLY_BRICK11-TOP_STUD-11
  *Elset, elset=ASSEMBLY_BRICK11-TOP_STUD-21
  *Elset, elset=ASSEMBLY_BRICK11-TOP_STUD-31
  *Elset, elset=ASSEMBLY_BRICK11-TOP_STUD-41
  *Elset, elset=ASSEMBLY_BRICK11-TOP_STUD-51
  *Elset, elset=ASSEMBLY_BRICK11-TOP_STUD-61
  *Elset, elset=ASSEMBLY_BRICK11-TOP_TOP-FACES
  *Elset, elset=ASSEMBLY_BRICK11-TOP__CONTACT-BOT_S1
  *Elset, elset=ASSEMBLY_BRICK11-TOP__CONTACT-BOT_S2
  *Elset, elset=ASSEMBLY_BRICK11-TOP__CONTACT-BOT_S3
  *Elset, elset=ASSEMBLY_BRICK11-TOP__CONTACT-BOT_S4
  *Elset, elset=ASSEMBLY_BRICK11-TOP__CONTACT-TOP_S1
  *Elset, elset=ASSEMBLY_BRICK11-TOP__CONTACT-TOP_S2
  *Elset, elset=ASSEMBLY_BRICK11-TOP__CONTACT-TOP_S3
  *Elset, elset=ASSEMBLY_BRICK11-TOP__CONTACT-TOP_S4
  *Elset, elset=ASSEMBLY_BRICK11-TOP__X0_S1
  *Elset, elset=ASSEMBLY_BRICK11-TOP__X0_S2
  *Elset, elset=ASSEMBLY_BRICK11-TOP__X0_S3
  *Elset, elset=ASSEMBLY_BRICK11-TOP__X0_S4
  *Elset, elset=ASSEMBLY_BRICK11-TOP__X1_S1
  *Elset, elset=ASSEMBLY_BRICK11-TOP__X1_S2
  *Elset, elset=ASSEMBLY_BRICK11-TOP__X1_S3
  *Elset, elset=ASSEMBLY_BRICK11-TOP__X1_S4
  *Elset, elset=ASSEMBLY_BRICK11-TOP__Z0_S1
  *Elset, elset=ASSEMBLY_BRICK11-TOP__Z0_S2
  *Elset, elset=ASSEMBLY_BRICK11-TOP__Z0_S3
  *Elset, elset=ASSEMBLY_BRICK11-TOP__Z0_S4
  *Elset, elset=ASSEMBLY_BRICK11-TOP__Z1_S1
  *Elset, elset=ASSEMBLY_BRICK11-TOP__Z1_S2
  *Elset, elset=ASSEMBLY_BRICK11-TOP__Z1_S3
  *Elset, elset=ASSEMBLY_BRICK11-TOP__Z1_S4
  *Node
  *Element, type=C3D4
  *Nset, nset=ASSEMBLY_BRICK12-TOP_ALL
  *Nset, nset=ASSEMBLY_BRICK12-TOP_BOTTOM
  *Nset, nset=ASSEMBLY_BRICK12-TOP_CONT-BOT
  *Nset, nset=ASSEMBLY_BRICK12-TOP_CONT-BOT-TOUCH
  *Nset, nset=ASSEMBLY_BRICK12-TOP_CONT-TOP-TOUCH
  *Nset, nset=ASSEMBLY_BRICK12-TOP_STUD-11
  *Nset, nset=ASSEMBLY_BRICK12-TOP_STUD-21
  *Nset, nset=ASSEMBLY_BRICK12-TOP_STUD-31
  *Nset, nset=ASSEMBLY_BRICK12-TOP_STUD-41
  *Nset, nset=ASSEMBLY_BRICK12-TOP_STUD-51
  *Nset, nset=ASSEMBLY_BRICK12-TOP_STUD-61
  *Nset, nset=ASSEMBLY_BRICK12-TOP_TOP-FACES
  *Nset, nset=ASSEMBLY_BRICK12-TOP_X-N1003
  *Nset, nset=ASSEMBLY_BRICK12-TOP_X-N1022
  *Nset, nset=ASSEMBLY_BRICK12-TOP_X-N1039
  *Nset, nset=ASSEMBLY_BRICK12-TOP_X-N1198
  *Nset, nset=ASSEMBLY_BRICK12-TOP_X-N1203
  *Nset, nset=ASSEMBLY_BRICK12-TOP_X-N4211
  *Nset, nset=ASSEMBLY_BRICK12-TOP_X-N4228
  *Nset, nset=ASSEMBLY_BRICK12-TOP_X-N4235
  *Nset, nset=ASSEMBLY_BRICK12-TOP_X-N4245
  *Nset, nset=ASSEMBLY_BRICK12-TOP_X-N4254
  *Nset, nset=ASSEMBLY_BRICK12-TOP_X-N4264
  *Nset, nset=ASSEMBLY_BRICK12-TOP_X-N4281
  *Nset, nset=ASSEMBLY_BRICK12-TOP_X-N4291
  *Nset, nset=ASSEMBLY_BRICK12-TOP_X-N4300
  *Nset, nset=ASSEMBLY_BRICK12-TOP_X-N4310
  *Nset, nset=ASSEMBLY_BRICK12-TOP_X-N4327
  *Nset, nset=ASSEMBLY_BRICK12-TOP_X-N4344
  *Nset, nset=ASSEMBLY_BRICK12-TOP_X-N4381
  *Nset, nset=ASSEMBLY_BRICK12-TOP_X-N4398
  *Nset, nset=ASSEMBLY_BRICK12-TOP_X-N4403
  *Nset, nset=ASSEMBLY_BRICK12-TOP_X-N4408
  *Nset, nset=ASSEMBLY_BRICK12-TOP_X-N4701
  *Nset, nset=ASSEMBLY_BRICK12-TOP_X-N4706
  *Nset, nset=ASSEMBLY_BRICK12-TOP_X-N4879
  *Nset, nset=ASSEMBLY_BRICK12-TOP_X-N4896
  *Nset, nset=ASSEMBLY_BRICK12-TOP_X-N910
  *Nset, nset=ASSEMBLY_BRICK12-TOP_X-N931
  *Nset, nset=ASSEMBLY_BRICK12-TOP_X-N941
  *Nset, nset=ASSEMBLY_BRICK12-TOP_X-N964
  *Nset, nset=ASSEMBLY_BRICK12-TOP_X-N974
  *Elset, elset=ASSEMBLY_BRICK12-TOP_ALL
  *Elset, elset=ASSEMBLY_BRICK12-TOP_BOTTOM
  *Elset, elset=ASSEMBLY_BRICK12-TOP_CONT-BOT
  *Elset, elset=ASSEMBLY_BRICK12-TOP_CONT-BOT-TOUCH
  *Elset, elset=ASSEMBLY_BRICK12-TOP_CONT-TOP-TOUCH
  *Elset, elset=ASSEMBLY_BRICK12-TOP_STUD-11
  *Elset, elset=ASSEMBLY_BRICK12-TOP_STUD-21
  *Elset, elset=ASSEMBLY_BRICK12-TOP_STUD-31
  *Elset, elset=ASSEMBLY_BRICK12-TOP_STUD-41
  *Elset, elset=ASSEMBLY_BRICK12-TOP_STUD-51
  *Elset, elset=ASSEMBLY_BRICK12-TOP_STUD-61
  *Elset, elset=ASSEMBLY_BRICK12-TOP_TOP-FACES
  *Elset, elset=ASSEMBLY_BRICK12-TOP__CONTACT-BOT_S1
  *Elset, elset=ASSEMBLY_BRICK12-TOP__CONTACT-BOT_S2
  *Elset, elset=ASSEMBLY_BRICK12-TOP__CONTACT-BOT_S3
  *Elset, elset=ASSEMBLY_BRICK12-TOP__CONTACT-BOT_S4
  *Elset, elset=ASSEMBLY_BRICK12-TOP__CONTACT-TOP_S1
  *Elset, elset=ASSEMBLY_BRICK12-TOP__CONTACT-TOP_S2
  *Elset, elset=ASSEMBLY_BRICK12-TOP__CONTACT-TOP_S3
  *Elset, elset=ASSEMBLY_BRICK12-TOP__CONTACT-TOP_S4
  *Elset, elset=ASSEMBLY_BRICK12-TOP__X0_S1
  *Elset, elset=ASSEMBLY_BRICK12-TOP__X0_S2
  *Elset, elset=ASSEMBLY_BRICK12-TOP__X0_S3
  *Elset, elset=ASSEMBLY_BRICK12-TOP__X0_S4
  *Elset, elset=ASSEMBLY_BRICK12-TOP__X1_S1
  *Elset, elset=ASSEMBLY_BRICK12-TOP__X1_S2
  *Elset, elset=ASSEMBLY_BRICK12-TOP__X1_S3
  *Elset, elset=ASSEMBLY_BRICK12-TOP__X1_S4
  *Elset, elset=ASSEMBLY_BRICK12-TOP__Z0_S1
  *Elset, elset=ASSEMBLY_BRICK12-TOP__Z0_S2
  *Elset, elset=ASSEMBLY_BRICK12-TOP__Z0_S3
  *Elset, elset=ASSEMBLY_BRICK12-TOP__Z0_S4
  *Elset, elset=ASSEMBLY_BRICK12-TOP__Z1_S1
  *Elset, elset=ASSEMBLY_BRICK12-TOP__Z1_S2
  *Elset, elset=ASSEMBLY_BRICK12-TOP__Z1_S3
  *Elset, elset=ASSEMBLY_BRICK12-TOP__Z1_S4
  *Node
  *Element, type=C3D4
  *Nset, nset=ASSEMBLY_BRICK13-TOP_ALL
  *Nset, nset=ASSEMBLY_BRICK13-TOP_BOTTOM
  *Nset, nset=ASSEMBLY_BRICK13-TOP_CONT-BOT
  *Nset, nset=ASSEMBLY_BRICK13-TOP_CONT-BOT-TOUCH
  *Nset, nset=ASSEMBLY_BRICK13-TOP_CONT-TOP-TOUCH
  *Nset, nset=ASSEMBLY_BRICK13-TOP_STUD-11
  *Nset, nset=ASSEMBLY_BRICK13-TOP_STUD-21
  *Nset, nset=ASSEMBLY_BRICK13-TOP_TOP-FACES
  *Nset, nset=ASSEMBLY_BRICK13-TOP_X-N1522
  *Nset, nset=ASSEMBLY_BRICK13-TOP_X-N1533
  *Nset, nset=ASSEMBLY_BRICK13-TOP_X-N1538
  *Nset, nset=ASSEMBLY_BRICK13-TOP_X-N1549
  *Nset, nset=ASSEMBLY_BRICK13-TOP_X-N1554
  *Nset, nset=ASSEMBLY_BRICK13-TOP_X-N1559
  *Nset, nset=ASSEMBLY_BRICK13-TOP_X-N1564
  *Nset, nset=ASSEMBLY_BRICK13-TOP_X-N1575
  *Nset, nset=ASSEMBLY_BRICK13-TOP_X-N1580
  *Nset, nset=ASSEMBLY_BRICK13-TOP_X-N1591
  *Nset, nset=ASSEMBLY_BRICK13-TOP_X-N1596
  *Nset, nset=ASSEMBLY_BRICK13-TOP_X-N1601
  *Nset, nset=ASSEMBLY_BRICK13-TOP_X-N344
  *Nset, nset=ASSEMBLY_BRICK13-TOP_X-N355
  *Nset, nset=ASSEMBLY_BRICK13-TOP_X-N364
  *Nset, nset=ASSEMBLY_BRICK13-TOP_X-N371
  *Nset, nset=ASSEMBLY_BRICK13-TOP_X-N382
  *Nset, nset=ASSEMBLY_BRICK13-TOP_X-N387
  *Elset, elset=ASSEMBLY_BRICK13-TOP_ALL
  *Elset, elset=ASSEMBLY_BRICK13-TOP_BOTTOM
  *Elset, elset=ASSEMBLY_BRICK13-TOP_CONT-BOT
  *Elset, elset=ASSEMBLY_BRICK13-TOP_CONT-BOT-TOUCH
  *Elset, elset=ASSEMBLY_BRICK13-TOP_CONT-TOP-TOUCH
  *Elset, elset=ASSEMBLY_BRICK13-TOP_STUD-11
  *Elset, elset=ASSEMBLY_BRICK13-TOP_STUD-21
  *Elset, elset=ASSEMBLY_BRICK13-TOP_TOP-FACES
  *Elset, elset=ASSEMBLY_BRICK13-TOP__CONTACT-BOT_S1
  *Elset, elset=ASSEMBLY_BRICK13-TOP__CONTACT-BOT_S2
  *Elset, elset=ASSEMBLY_BRICK13-TOP__CONTACT-BOT_S3
  *Elset, elset=ASSEMBLY_BRICK13-TOP__CONTACT-BOT_S4
  *Elset, elset=ASSEMBLY_BRICK13-TOP__CONTACT-TOP_S1
  *Elset, elset=ASSEMBLY_BRICK13-TOP__CONTACT-TOP_S2
  *Elset, elset=ASSEMBLY_BRICK13-TOP__CONTACT-TOP_S3
  *Elset, elset=ASSEMBLY_BRICK13-TOP__CONTACT-TOP_S4
  *Elset, elset=ASSEMBLY_BRICK13-TOP__X0_S1
  *Elset, elset=ASSEMBLY_BRICK13-TOP__X0_S2
  *Elset, elset=ASSEMBLY_BRICK13-TOP__X0_S3
  *Elset, elset=ASSEMBLY_BRICK13-TOP__X0_S4
  *Elset, elset=ASSEMBLY_BRICK13-TOP__X1_S1
  *Elset, elset=ASSEMBLY_BRICK13-TOP__X1_S2
  *Elset, elset=ASSEMBLY_BRICK13-TOP__X1_S3
  *Elset, elset=ASSEMBLY_BRICK13-TOP__X1_S4
  *Elset, elset=ASSEMBLY_BRICK13-TOP__Z0_S1
  *Elset, elset=ASSEMBLY_BRICK13-TOP__Z0_S2
  *Elset, elset=ASSEMBLY_BRICK13-TOP__Z0_S3
  *Elset, elset=ASSEMBLY_BRICK13-TOP__Z0_S4
  *Elset, elset=ASSEMBLY_BRICK13-TOP__Z1_S1
  *Elset, elset=ASSEMBLY_BRICK13-TOP__Z1_S2
  *Elset, elset=ASSEMBLY_BRICK13-TOP__Z1_S3
  *Elset, elset=ASSEMBLY_BRICK13-TOP__Z1_S4
  *Node
  *Element, type=C3D4
  *Nset, nset=ASSEMBLY_BRICK14-TOP_ALL
  *Nset, nset=ASSEMBLY_BRICK14-TOP_BOTTOM
  *Nset, nset=ASSEMBLY_BRICK14-TOP_CONT-BOT
  *Nset, nset=ASSEMBLY_BRICK14-TOP_CONT-BOT-TOUCH
  *Nset, nset=ASSEMBLY_BRICK14-TOP_CONT-TOP-TOUCH
  *Nset, nset=ASSEMBLY_BRICK14-TOP_STUD-11
  *Nset, nset=ASSEMBLY_BRICK14-TOP_STUD-21
  *Nset, nset=ASSEMBLY_BRICK14-TOP_TOP-FACES
  *Nset, nset=ASSEMBLY_BRICK14-TOP_X-N1522
  *Nset, nset=ASSEMBLY_BRICK14-TOP_X-N1533
  *Nset, nset=ASSEMBLY_BRICK14-TOP_X-N1538
  *Nset, nset=ASSEMBLY_BRICK14-TOP_X-N1549
  *Nset, nset=ASSEMBLY_BRICK14-TOP_X-N1554
  *Nset, nset=ASSEMBLY_BRICK14-TOP_X-N1559
  *Nset, nset=ASSEMBLY_BRICK14-TOP_X-N1564
  *Nset, nset=ASSEMBLY_BRICK14-TOP_X-N1575
  *Nset, nset=ASSEMBLY_BRICK14-TOP_X-N1580
  *Nset, nset=ASSEMBLY_BRICK14-TOP_X-N1591
  *Nset, nset=ASSEMBLY_BRICK14-TOP_X-N1596
  *Nset, nset=ASSEMBLY_BRICK14-TOP_X-N1601
  *Nset, nset=ASSEMBLY_BRICK14-TOP_X-N344
  *Nset, nset=ASSEMBLY_BRICK14-TOP_X-N355
  *Nset, nset=ASSEMBLY_BRICK14-TOP_X-N364
  *Nset, nset=ASSEMBLY_BRICK14-TOP_X-N371
  *Nset, nset=ASSEMBLY_BRICK14-TOP_X-N382
  *Nset, nset=ASSEMBLY_BRICK14-TOP_X-N387
  *Elset, elset=ASSEMBLY_BRICK14-TOP_ALL
  *Elset, elset=ASSEMBLY_BRICK14-TOP_BOTTOM
  *Elset, elset=ASSEMBLY_BRICK14-TOP_CONT-BOT
  *Elset, elset=ASSEMBLY_BRICK14-TOP_CONT-BOT-TOUCH
  *Elset, elset=ASSEMBLY_BRICK14-TOP_CONT-TOP-TOUCH
  *Elset, elset=ASSEMBLY_BRICK14-TOP_STUD-11
  *Elset, elset=ASSEMBLY_BRICK14-TOP_STUD-21
  *Elset, elset=ASSEMBLY_BRICK14-TOP_TOP-FACES
  *Elset, elset=ASSEMBLY_BRICK14-TOP__CONTACT-BOT_S1
  *Elset, elset=ASSEMBLY_BRICK14-TOP__CONTACT-BOT_S2
  *Elset, elset=ASSEMBLY_BRICK14-TOP__CONTACT-BOT_S3
  *Elset, elset=ASSEMBLY_BRICK14-TOP__CONTACT-BOT_S4
  *Elset, elset=ASSEMBLY_BRICK14-TOP__CONTACT-TOP_S1
  *Elset, elset=ASSEMBLY_BRICK14-TOP__CONTACT-TOP_S2
  *Elset, elset=ASSEMBLY_BRICK14-TOP__CONTACT-TOP_S3
  *Elset, elset=ASSEMBLY_BRICK14-TOP__CONTACT-TOP_S4
  *Elset, elset=ASSEMBLY_BRICK14-TOP__X0_S1
  *Elset, elset=ASSEMBLY_BRICK14-TOP__X0_S2
  *Elset, elset=ASSEMBLY_BRICK14-TOP__X0_S3
  *Elset, elset=ASSEMBLY_BRICK14-TOP__X0_S4
  *Elset, elset=ASSEMBLY_BRICK14-TOP__X1_S1
  *Elset, elset=ASSEMBLY_BRICK14-TOP__X1_S2
  *Elset, elset=ASSEMBLY_BRICK14-TOP__X1_S3
  *Elset, elset=ASSEMBLY_BRICK14-TOP__X1_S4
  *Elset, elset=ASSEMBLY_BRICK14-TOP__Z0_S1
  *Elset, elset=ASSEMBLY_BRICK14-TOP__Z0_S2
  *Elset, elset=ASSEMBLY_BRICK14-TOP__Z0_S3
  *Elset, elset=ASSEMBLY_BRICK14-TOP__Z0_S4
  *Elset, elset=ASSEMBLY_BRICK14-TOP__Z1_S1
  *Elset, elset=ASSEMBLY_BRICK14-TOP__Z1_S2
  *Elset, elset=ASSEMBLY_BRICK14-TOP__Z1_S3
  *Elset, elset=ASSEMBLY_BRICK14-TOP__Z1_S4
  *Node
  *Element, type=C3D4
  *Nset, nset=ASSEMBLY_BRICK15-TOP_ALL
  *Nset, nset=ASSEMBLY_BRICK15-TOP_BOTTOM
  *Nset, nset=ASSEMBLY_BRICK15-TOP_CONT-BOT
  *Nset, nset=ASSEMBLY_BRICK15-TOP_CONT-BOT-TOUCH
  *Nset, nset=ASSEMBLY_BRICK15-TOP_CONT-TOP-TOUCH
  *Nset, nset=ASSEMBLY_BRICK15-TOP_STUD-11
  *Nset, nset=ASSEMBLY_BRICK15-TOP_STUD-21
  *Nset, nset=ASSEMBLY_BRICK15-TOP_STUD-31
  *Nset, nset=ASSEMBLY_BRICK15-TOP_STUD-41
  *Nset, nset=ASSEMBLY_BRICK15-TOP_STUD-51
  *Nset, nset=ASSEMBLY_BRICK15-TOP_STUD-61
  *Nset, nset=ASSEMBLY_BRICK15-TOP_TOP-FACES
  *Nset, nset=ASSEMBLY_BRICK15-TOP_X-N1003
  *Nset, nset=ASSEMBLY_BRICK15-TOP_X-N1022
  *Nset, nset=ASSEMBLY_BRICK15-TOP_X-N1039
  *Nset, nset=ASSEMBLY_BRICK15-TOP_X-N1198
  *Nset, nset=ASSEMBLY_BRICK15-TOP_X-N1203
  *Nset, nset=ASSEMBLY_BRICK15-TOP_X-N4211
  *Nset, nset=ASSEMBLY_BRICK15-TOP_X-N4228
  *Nset, nset=ASSEMBLY_BRICK15-TOP_X-N4235
  *Nset, nset=ASSEMBLY_BRICK15-TOP_X-N4245
  *Nset, nset=ASSEMBLY_BRICK15-TOP_X-N4254
  *Nset, nset=ASSEMBLY_BRICK15-TOP_X-N4264
  *Nset, nset=ASSEMBLY_BRICK15-TOP_X-N4281
  *Nset, nset=ASSEMBLY_BRICK15-TOP_X-N4291
  *Nset, nset=ASSEMBLY_BRICK15-TOP_X-N4300
  *Nset, nset=ASSEMBLY_BRICK15-TOP_X-N4310
  *Nset, nset=ASSEMBLY_BRICK15-TOP_X-N4327
  *Nset, nset=ASSEMBLY_BRICK15-TOP_X-N4344
  *Nset, nset=ASSEMBLY_BRICK15-TOP_X-N4381
  *Nset, nset=ASSEMBLY_BRICK15-TOP_X-N4398
  *Nset, nset=ASSEMBLY_BRICK15-TOP_X-N4403
  *Nset, nset=ASSEMBLY_BRICK15-TOP_X-N4408
  *Nset, nset=ASSEMBLY_BRICK15-TOP_X-N4701
  *Nset, nset=ASSEMBLY_BRICK15-TOP_X-N4706
  *Nset, nset=ASSEMBLY_BRICK15-TOP_X-N4879
  *Nset, nset=ASSEMBLY_BRICK15-TOP_X-N4896
  *Nset, nset=ASSEMBLY_BRICK15-TOP_X-N910
  *Nset, nset=ASSEMBLY_BRICK15-TOP_X-N931
  *Nset, nset=ASSEMBLY_BRICK15-TOP_X-N941
  *Nset, nset=ASSEMBLY_BRICK15-TOP_X-N964
  *Nset, nset=ASSEMBLY_BRICK15-TOP_X-N974
  *Elset, elset=ASSEMBLY_BRICK15-TOP_ALL
  *Elset, elset=ASSEMBLY_BRICK15-TOP_BOTTOM
  *Elset, elset=ASSEMBLY_BRICK15-TOP_CONT-BOT
  *Elset, elset=ASSEMBLY_BRICK15-TOP_CONT-BOT-TOUCH
  *Elset, elset=ASSEMBLY_BRICK15-TOP_CONT-TOP-TOUCH
  *Elset, elset=ASSEMBLY_BRICK15-TOP_STUD-11
  *Elset, elset=ASSEMBLY_BRICK15-TOP_STUD-21
  *Elset, elset=ASSEMBLY_BRICK15-TOP_STUD-31
  *Elset, elset=ASSEMBLY_BRICK15-TOP_STUD-41
  *Elset, elset=ASSEMBLY_BRICK15-TOP_STUD-51
  *Elset, elset=ASSEMBLY_BRICK15-TOP_STUD-61
  *Elset, elset=ASSEMBLY_BRICK15-TOP_TOP-FACES
  *Elset, elset=ASSEMBLY_BRICK15-TOP__CONTACT-BOT_S1
  *Elset, elset=ASSEMBLY_BRICK15-TOP__CONTACT-BOT_S2
  *Elset, elset=ASSEMBLY_BRICK15-TOP__CONTACT-BOT_S3
  *Elset, elset=ASSEMBLY_BRICK15-TOP__CONTACT-BOT_S4
  *Elset, elset=ASSEMBLY_BRICK15-TOP__CONTACT-TOP_S1
  *Elset, elset=ASSEMBLY_BRICK15-TOP__CONTACT-TOP_S2
  *Elset, elset=ASSEMBLY_BRICK15-TOP__CONTACT-TOP_S3
  *Elset, elset=ASSEMBLY_BRICK15-TOP__CONTACT-TOP_S4
  *Elset, elset=ASSEMBLY_BRICK15-TOP__X0_S1
  *Elset, elset=ASSEMBLY_BRICK15-TOP__X0_S2
  *Elset, elset=ASSEMBLY_BRICK15-TOP__X0_S3
  *Elset, elset=ASSEMBLY_BRICK15-TOP__X0_S4
  *Elset, elset=ASSEMBLY_BRICK15-TOP__X1_S1
  *Elset, elset=ASSEMBLY_BRICK15-TOP__X1_S2
  *Elset, elset=ASSEMBLY_BRICK15-TOP__X1_S3
  *Elset, elset=ASSEMBLY_BRICK15-TOP__X1_S4
  *Elset, elset=ASSEMBLY_BRICK15-TOP__Z0_S1
  *Elset, elset=ASSEMBLY_BRICK15-TOP__Z0_S2
  *Elset, elset=ASSEMBLY_BRICK15-TOP__Z0_S3
  *Elset, elset=ASSEMBLY_BRICK15-TOP__Z0_S4
  *Elset, elset=ASSEMBLY_BRICK15-TOP__Z1_S1
  *Elset, elset=ASSEMBLY_BRICK15-TOP__Z1_S2
  *Elset, elset=ASSEMBLY_BRICK15-TOP__Z1_S3
  *Elset, elset=ASSEMBLY_BRICK15-TOP__Z1_S4
  *Elset, elset=ASSEMBLY___CONT-BT-10-8_MSM_3_S1
  *Elset, elset=ASSEMBLY___CONT-BT-10-8_MSM_3_S2
  *Elset, elset=ASSEMBLY___CONT-BT-10-8_MSM_3_S3
  *Elset, elset=ASSEMBLY___CONT-BT-10-8_MSM_3_S4
  *Elset, elset=ASSEMBLY___CONT-BT-10-8_SSM_1_S1
  *Elset, elset=ASSEMBLY___CONT-BT-10-8_SSM_1_S2
  *Elset, elset=ASSEMBLY___CONT-BT-10-8_SSM_1_S3
  *Elset, elset=ASSEMBLY___CONT-BT-10-8_SSM_1_S4
  *Elset, elset=ASSEMBLY___CONT-BT-10-8_SSM_2_S1
  *Elset, elset=ASSEMBLY___CONT-BT-10-8_SSM_2_S2
  *Elset, elset=ASSEMBLY___CONT-BT-10-8_SSM_2_S3
  *Elset, elset=ASSEMBLY___CONT-BT-10-8_SSM_2_S4
  *Elset, elset=ASSEMBLY___CONT-BT-10-8_SSM_3_S1
  *Elset, elset=ASSEMBLY___CONT-BT-10-8_SSM_3_S2
  *Elset, elset=ASSEMBLY___CONT-BT-10-8_SSM_3_S3
  *Elset, elset=ASSEMBLY___CONT-BT-10-8_SSM_3_S4
  *Elset, elset=ASSEMBLY___CONT-BT-10-8_SSM_4_S1
  *Elset, elset=ASSEMBLY___CONT-BT-10-8_SSM_4_S2
  *Elset, elset=ASSEMBLY___CONT-BT-10-8_SSM_4_S3
  *Elset, elset=ASSEMBLY___CONT-BT-10-8_SSM_4_S4
  *Elset, elset=ASSEMBLY___CONT-BT-10-8_SSM_5_S1
  *Elset, elset=ASSEMBLY___CONT-BT-10-8_SSM_5_S2
  *Elset, elset=ASSEMBLY___CONT-BT-10-8_SSM_5_S3
  *Elset, elset=ASSEMBLY___CONT-BT-10-8_SSM_5_S4
  *Elset, elset=ASSEMBLY___CONT-BT-10-8_SSM_6_S1
  *Elset, elset=ASSEMBLY___CONT-BT-10-8_SSM_6_S2
  *Elset, elset=ASSEMBLY___CONT-BT-10-8_SSM_6_S3
  *Elset, elset=ASSEMBLY___CONT-BT-10-8_SSM_6_S4
  *Elset, elset=ASSEMBLY___CONT-BT-11-8_MSM_11_S1
  *Elset, elset=ASSEMBLY___CONT-BT-11-8_MSM_11_S2
  *Elset, elset=ASSEMBLY___CONT-BT-11-8_MSM_11_S3
  *Elset, elset=ASSEMBLY___CONT-BT-11-8_MSM_11_S4
  *Elset, elset=ASSEMBLY___CONT-BT-11-8_MSM_12_S1
  *Elset, elset=ASSEMBLY___CONT-BT-11-8_MSM_12_S2
  *Elset, elset=ASSEMBLY___CONT-BT-11-8_MSM_12_S3
  *Elset, elset=ASSEMBLY___CONT-BT-11-8_MSM_12_S4
  *Elset, elset=ASSEMBLY___CONT-BT-11-8_MSM_13_S1
  *Elset, elset=ASSEMBLY___CONT-BT-11-8_MSM_13_S2
  *Elset, elset=ASSEMBLY___CONT-BT-11-8_MSM_13_S3
  *Elset, elset=ASSEMBLY___CONT-BT-11-8_MSM_13_S4
  *Elset, elset=ASSEMBLY___CONT-BT-11-8_MSM_14_S2
  *Elset, elset=ASSEMBLY___CONT-BT-11-8_MSM_14_S3
  *Elset, elset=ASSEMBLY___CONT-BT-11-8_MSM_14_S4
  *Elset, elset=ASSEMBLY___CONT-BT-11-8_MSM_18_S1
  *Elset, elset=ASSEMBLY___CONT-BT-11-8_MSM_18_S3
  *Elset, elset=ASSEMBLY___CONT-BT-11-8_MSM_18_S4
  *Elset, elset=ASSEMBLY___CONT-BT-11-8_MSM_21_S1
  *Elset, elset=ASSEMBLY___CONT-BT-11-8_MSM_21_S2
  *Elset, elset=ASSEMBLY___CONT-BT-11-8_MSM_21_S3
  *Elset, elset=ASSEMBLY___CONT-BT-11-8_MSM_21_S4
  *Elset, elset=ASSEMBLY___CONT-BT-11-8_MSM_6_S3
  *Elset, elset=ASSEMBLY___CONT-BT-11-8_MSM_6_S4
  *Elset, elset=ASSEMBLY___CONT-BT-11-8_SSM_1_S1
  *Elset, elset=ASSEMBLY___CONT-BT-11-8_SSM_1_S2
  *Elset, elset=ASSEMBLY___CONT-BT-11-8_SSM_1_S3
  *Elset, elset=ASSEMBLY___CONT-BT-11-8_SSM_1_S4
  *Elset, elset=ASSEMBLY___CONT-BT-11-8_SSM_2_S1
  *Elset, elset=ASSEMBLY___CONT-BT-11-8_SSM_2_S2
  *Elset, elset=ASSEMBLY___CONT-BT-11-8_SSM_2_S3
  *Elset, elset=ASSEMBLY___CONT-BT-11-8_SSM_2_S4
  *Elset, elset=ASSEMBLY___CONT-BT-11-8_SSM_3_S1
  *Elset, elset=ASSEMBLY___CONT-BT-11-8_SSM_3_S2
  *Elset, elset=ASSEMBLY___CONT-BT-11-8_SSM_3_S3
  *Elset, elset=ASSEMBLY___CONT-BT-11-8_SSM_3_S4
  *Elset, elset=ASSEMBLY___CONT-BT-11-8_SSM_4_S1
  *Elset, elset=ASSEMBLY___CONT-BT-11-8_SSM_4_S2
  *Elset, elset=ASSEMBLY___CONT-BT-11-8_SSM_4_S3
  *Elset, elset=ASSEMBLY___CONT-BT-11-8_SSM_4_S4
  *Elset, elset=ASSEMBLY___CONT-BT-11-8_SSM_5_S1
  *Elset, elset=ASSEMBLY___CONT-BT-11-8_SSM_5_S2
  *Elset, elset=ASSEMBLY___CONT-BT-11-8_SSM_5_S3
  *Elset, elset=ASSEMBLY___CONT-BT-11-8_SSM_5_S4
  *Elset, elset=ASSEMBLY___CONT-BT-11-8_SSM_6_S1
  *Elset, elset=ASSEMBLY___CONT-BT-11-8_SSM_6_S2
  *Elset, elset=ASSEMBLY___CONT-BT-11-8_SSM_6_S3
  *Elset, elset=ASSEMBLY___CONT-BT-11-8_SSM_6_S4
  *Elset, elset=ASSEMBLY___CONT-BT-11-9_MSM_11_S1
  *Elset, elset=ASSEMBLY___CONT-BT-11-9_MSM_11_S2
  *Elset, elset=ASSEMBLY___CONT-BT-11-9_MSM_11_S3
  *Elset, elset=ASSEMBLY___CONT-BT-11-9_MSM_11_S4
  *Elset, elset=ASSEMBLY___CONT-BT-11-9_MSM_12_S1
  *Elset, elset=ASSEMBLY___CONT-BT-11-9_MSM_12_S2
  *Elset, elset=ASSEMBLY___CONT-BT-11-9_MSM_12_S3
  *Elset, elset=ASSEMBLY___CONT-BT-11-9_MSM_12_S4
  *Elset, elset=ASSEMBLY___CONT-BT-11-9_MSM_13_S1
  *Elset, elset=ASSEMBLY___CONT-BT-11-9_MSM_13_S2
  *Elset, elset=ASSEMBLY___CONT-BT-11-9_MSM_13_S3
  *Elset, elset=ASSEMBLY___CONT-BT-11-9_MSM_13_S4
  *Elset, elset=ASSEMBLY___CONT-BT-11-9_MSM_14_S2
  *Elset, elset=ASSEMBLY___CONT-BT-11-9_MSM_14_S3
  *Elset, elset=ASSEMBLY___CONT-BT-11-9_MSM_14_S4
  *Elset, elset=ASSEMBLY___CONT-BT-11-9_MSM_18_S1
  *Elset, elset=ASSEMBLY___CONT-BT-11-9_MSM_18_S3
  *Elset, elset=ASSEMBLY___CONT-BT-11-9_MSM_18_S4
  *Elset, elset=ASSEMBLY___CONT-BT-11-9_MSM_21_S1
  *Elset, elset=ASSEMBLY___CONT-BT-11-9_MSM_21_S2
  *Elset, elset=ASSEMBLY___CONT-BT-11-9_MSM_21_S3
  *Elset, elset=ASSEMBLY___CONT-BT-11-9_MSM_21_S4
  *Elset, elset=ASSEMBLY___CONT-BT-11-9_MSM_6_S3
  *Elset, elset=ASSEMBLY___CONT-BT-11-9_MSM_6_S4
  *Elset, elset=ASSEMBLY___CONT-BT-11-9_SSM_1_S1
  *Elset, elset=ASSEMBLY___CONT-BT-11-9_SSM_1_S2
  *Elset, elset=ASSEMBLY___CONT-BT-11-9_SSM_1_S3
  *Elset, elset=ASSEMBLY___CONT-BT-11-9_SSM_1_S4
  *Elset, elset=ASSEMBLY___CONT-BT-11-9_SSM_2_S1
  *Elset, elset=ASSEMBLY___CONT-BT-11-9_SSM_2_S2
  *Elset, elset=ASSEMBLY___CONT-BT-11-9_SSM_2_S3
  *Elset, elset=ASSEMBLY___CONT-BT-11-9_SSM_2_S4
  *Elset, elset=ASSEMBLY___CONT-BT-12-10_MSM_11_S1
  *Elset, elset=ASSEMBLY___CONT-BT-12-10_MSM_11_S2
  *Elset, elset=ASSEMBLY___CONT-BT-12-10_MSM_11_S3
  *Elset, elset=ASSEMBLY___CONT-BT-12-10_MSM_11_S4
  *Elset, elset=ASSEMBLY___CONT-BT-12-10_MSM_12_S1
  *Elset, elset=ASSEMBLY___CONT-BT-12-10_MSM_12_S2
  *Elset, elset=ASSEMBLY___CONT-BT-12-10_MSM_12_S3
  *Elset, elset=ASSEMBLY___CONT-BT-12-10_MSM_12_S4
  *Elset, elset=ASSEMBLY___CONT-BT-12-10_MSM_13_S1
  *Elset, elset=ASSEMBLY___CONT-BT-12-10_MSM_13_S2
  *Elset, elset=ASSEMBLY___CONT-BT-12-10_MSM_13_S3
  *Elset, elset=ASSEMBLY___CONT-BT-12-10_MSM_13_S4
  *Elset, elset=ASSEMBLY___CONT-BT-12-10_MSM_14_S2
  *Elset, elset=ASSEMBLY___CONT-BT-12-10_MSM_14_S3
  *Elset, elset=ASSEMBLY___CONT-BT-12-10_MSM_14_S4
  *Elset, elset=ASSEMBLY___CONT-BT-12-10_MSM_18_S1
  *Elset, elset=ASSEMBLY___CONT-BT-12-10_MSM_18_S3
  *Elset, elset=ASSEMBLY___CONT-BT-12-10_MSM_18_S4
  *Elset, elset=ASSEMBLY___CONT-BT-12-10_MSM_21_S1
  *Elset, elset=ASSEMBLY___CONT-BT-12-10_MSM_21_S2
  *Elset, elset=ASSEMBLY___CONT-BT-12-10_MSM_21_S3
  *Elset, elset=ASSEMBLY___CONT-BT-12-10_MSM_21_S4
  *Elset, elset=ASSEMBLY___CONT-BT-12-10_MSM_6_S3
  *Elset, elset=ASSEMBLY___CONT-BT-12-10_MSM_6_S4
  *Elset, elset=ASSEMBLY___CONT-BT-12-10_SSM_1_S1
  *Elset, elset=ASSEMBLY___CONT-BT-12-10_SSM_1_S2
  *Elset, elset=ASSEMBLY___CONT-BT-12-10_SSM_1_S3
  *Elset, elset=ASSEMBLY___CONT-BT-12-10_SSM_1_S4
  *Elset, elset=ASSEMBLY___CONT-BT-12-10_SSM_2_S1
  *Elset, elset=ASSEMBLY___CONT-BT-12-10_SSM_2_S2
  *Elset, elset=ASSEMBLY___CONT-BT-12-10_SSM_2_S3
  *Elset, elset=ASSEMBLY___CONT-BT-12-10_SSM_2_S4
  *Elset, elset=ASSEMBLY___CONT-BT-12-11_MSM_11_S1
  *Elset, elset=ASSEMBLY___CONT-BT-12-11_MSM_11_S2
  *Elset, elset=ASSEMBLY___CONT-BT-12-11_MSM_11_S3
  *Elset, elset=ASSEMBLY___CONT-BT-12-11_MSM_11_S4
  *Elset, elset=ASSEMBLY___CONT-BT-12-11_MSM_12_S1
  *Elset, elset=ASSEMBLY___CONT-BT-12-11_MSM_12_S2
  *Elset, elset=ASSEMBLY___CONT-BT-12-11_MSM_12_S3
  *Elset, elset=ASSEMBLY___CONT-BT-12-11_MSM_12_S4
  *Elset, elset=ASSEMBLY___CONT-BT-12-11_MSM_13_S1
  *Elset, elset=ASSEMBLY___CONT-BT-12-11_MSM_13_S2
  *Elset, elset=ASSEMBLY___CONT-BT-12-11_MSM_13_S3
  *Elset, elset=ASSEMBLY___CONT-BT-12-11_MSM_13_S4
  *Elset, elset=ASSEMBLY___CONT-BT-12-11_MSM_14_S2
  *Elset, elset=ASSEMBLY___CONT-BT-12-11_MSM_14_S3
  *Elset, elset=ASSEMBLY___CONT-BT-12-11_MSM_14_S4
  *Elset, elset=ASSEMBLY___CONT-BT-12-11_MSM_18_S1
  *Elset, elset=ASSEMBLY___CONT-BT-12-11_MSM_18_S3
  *Elset, elset=ASSEMBLY___CONT-BT-12-11_MSM_18_S4
  *Elset, elset=ASSEMBLY___CONT-BT-12-11_MSM_21_S1
  *Elset, elset=ASSEMBLY___CONT-BT-12-11_MSM_21_S2
  *Elset, elset=ASSEMBLY___CONT-BT-12-11_MSM_21_S3
  *Elset, elset=ASSEMBLY___CONT-BT-12-11_MSM_21_S4
  *Elset, elset=ASSEMBLY___CONT-BT-12-11_MSM_6_S3
  *Elset, elset=ASSEMBLY___CONT-BT-12-11_MSM_6_S4
  *Elset, elset=ASSEMBLY___CONT-BT-12-11_SSM_1_S1
  *Elset, elset=ASSEMBLY___CONT-BT-12-11_SSM_1_S2
  *Elset, elset=ASSEMBLY___CONT-BT-12-11_SSM_1_S3
  *Elset, elset=ASSEMBLY___CONT-BT-12-11_SSM_1_S4
  *Elset, elset=ASSEMBLY___CONT-BT-12-11_SSM_2_S1
  *Elset, elset=ASSEMBLY___CONT-BT-12-11_SSM_2_S2
  *Elset, elset=ASSEMBLY___CONT-BT-12-11_SSM_2_S3
  *Elset, elset=ASSEMBLY___CONT-BT-12-11_SSM_2_S4
  *Elset, elset=ASSEMBLY___CONT-BT-12-11_SSM_3_S1
  *Elset, elset=ASSEMBLY___CONT-BT-12-11_SSM_3_S2
  *Elset, elset=ASSEMBLY___CONT-BT-12-11_SSM_3_S3
  *Elset, elset=ASSEMBLY___CONT-BT-12-11_SSM_3_S4
  *Elset, elset=ASSEMBLY___CONT-BT-12-11_SSM_4_S1
  *Elset, elset=ASSEMBLY___CONT-BT-12-11_SSM_4_S2
  *Elset, elset=ASSEMBLY___CONT-BT-12-11_SSM_4_S3
  *Elset, elset=ASSEMBLY___CONT-BT-12-11_SSM_4_S4
  *Elset, elset=ASSEMBLY___CONT-BT-12-11_SSM_5_S1
  *Elset, elset=ASSEMBLY___CONT-BT-12-11_SSM_5_S2
  *Elset, elset=ASSEMBLY___CONT-BT-12-11_SSM_5_S3
  *Elset, elset=ASSEMBLY___CONT-BT-12-11_SSM_5_S4
  *Elset, elset=ASSEMBLY___CONT-BT-12-11_SSM_6_S1
  *Elset, elset=ASSEMBLY___CONT-BT-12-11_SSM_6_S2
  *Elset, elset=ASSEMBLY___CONT-BT-12-11_SSM_6_S3
  *Elset, elset=ASSEMBLY___CONT-BT-12-11_SSM_6_S4
  *Elset, elset=ASSEMBLY___CONT-BT-13-11_MSM_3_S1
  *Elset, elset=ASSEMBLY___CONT-BT-13-11_MSM_3_S2
  *Elset, elset=ASSEMBLY___CONT-BT-13-11_MSM_3_S3
  *Elset, elset=ASSEMBLY___CONT-BT-13-11_MSM_3_S4
  *Elset, elset=ASSEMBLY___CONT-BT-13-11_SSM_1_S1
  *Elset, elset=ASSEMBLY___CONT-BT-13-11_SSM_1_S2
  *Elset, elset=ASSEMBLY___CONT-BT-13-11_SSM_1_S3
  *Elset, elset=ASSEMBLY___CONT-BT-13-11_SSM_1_S4
  *Elset, elset=ASSEMBLY___CONT-BT-13-11_SSM_2_S1
  *Elset, elset=ASSEMBLY___CONT-BT-13-11_SSM_2_S2
  *Elset, elset=ASSEMBLY___CONT-BT-13-11_SSM_2_S3
  *Elset, elset=ASSEMBLY___CONT-BT-13-11_SSM_2_S4
  *Elset, elset=ASSEMBLY___CONT-BT-13-11_SSM_3_S1
  *Elset, elset=ASSEMBLY___CONT-BT-13-11_SSM_3_S2
  *Elset, elset=ASSEMBLY___CONT-BT-13-11_SSM_3_S3
  *Elset, elset=ASSEMBLY___CONT-BT-13-11_SSM_3_S4
  *Elset, elset=ASSEMBLY___CONT-BT-13-11_SSM_4_S1
  *Elset, elset=ASSEMBLY___CONT-BT-13-11_SSM_4_S2
  *Elset, elset=ASSEMBLY___CONT-BT-13-11_SSM_4_S3
  *Elset, elset=ASSEMBLY___CONT-BT-13-11_SSM_4_S4
  *Elset, elset=ASSEMBLY___CONT-BT-13-11_SSM_5_S1
  *Elset, elset=ASSEMBLY___CONT-BT-13-11_SSM_5_S2
  *Elset, elset=ASSEMBLY___CONT-BT-13-11_SSM_5_S3
  *Elset, elset=ASSEMBLY___CONT-BT-13-11_SSM_5_S4
  *Elset, elset=ASSEMBLY___CONT-BT-13-11_SSM_6_S1
  *Elset, elset=ASSEMBLY___CONT-BT-13-11_SSM_6_S2
  *Elset, elset=ASSEMBLY___CONT-BT-13-11_SSM_6_S3
  *Elset, elset=ASSEMBLY___CONT-BT-13-11_SSM_6_S4
  *Elset, elset=ASSEMBLY___CONT-BT-14-12_MSM_3_S1
  *Elset, elset=ASSEMBLY___CONT-BT-14-12_MSM_3_S2
  *Elset, elset=ASSEMBLY___CONT-BT-14-12_MSM_3_S3
  *Elset, elset=ASSEMBLY___CONT-BT-14-12_MSM_3_S4
  *Elset, elset=ASSEMBLY___CONT-BT-14-12_SSM_1_S1
  *Elset, elset=ASSEMBLY___CONT-BT-14-12_SSM_1_S2
  *Elset, elset=ASSEMBLY___CONT-BT-14-12_SSM_1_S3
  *Elset, elset=ASSEMBLY___CONT-BT-14-12_SSM_1_S4
  *Elset, elset=ASSEMBLY___CONT-BT-14-12_SSM_2_S1
  *Elset, elset=ASSEMBLY___CONT-BT-14-12_SSM_2_S2
  *Elset, elset=ASSEMBLY___CONT-BT-14-12_SSM_2_S3
  *Elset, elset=ASSEMBLY___CONT-BT-14-12_SSM_2_S4
  *Elset, elset=ASSEMBLY___CONT-BT-14-12_SSM_3_S1
  *Elset, elset=ASSEMBLY___CONT-BT-14-12_SSM_3_S2
  *Elset, elset=ASSEMBLY___CONT-BT-14-12_SSM_3_S3
  *Elset, elset=ASSEMBLY___CONT-BT-14-12_SSM_3_S4
  *Elset, elset=ASSEMBLY___CONT-BT-14-12_SSM_4_S1
  *Elset, elset=ASSEMBLY___CONT-BT-14-12_SSM_4_S2
  *Elset, elset=ASSEMBLY___CONT-BT-14-12_SSM_4_S3
  *Elset, elset=ASSEMBLY___CONT-BT-14-12_SSM_4_S4
  *Elset, elset=ASSEMBLY___CONT-BT-14-12_SSM_5_S1
  *Elset, elset=ASSEMBLY___CONT-BT-14-12_SSM_5_S2
  *Elset, elset=ASSEMBLY___CONT-BT-14-12_SSM_5_S3
  *Elset, elset=ASSEMBLY___CONT-BT-14-12_SSM_5_S4
  *Elset, elset=ASSEMBLY___CONT-BT-14-12_SSM_6_S1
  *Elset, elset=ASSEMBLY___CONT-BT-14-12_SSM_6_S2
  *Elset, elset=ASSEMBLY___CONT-BT-14-12_SSM_6_S3
  *Elset, elset=ASSEMBLY___CONT-BT-14-12_SSM_6_S4
  *Elset, elset=ASSEMBLY___CONT-BT-15-12_MSM_11_S1
  *Elset, elset=ASSEMBLY___CONT-BT-15-12_MSM_11_S2
  *Elset, elset=ASSEMBLY___CONT-BT-15-12_MSM_11_S3
  *Elset, elset=ASSEMBLY___CONT-BT-15-12_MSM_11_S4
  *Elset, elset=ASSEMBLY___CONT-BT-15-12_MSM_12_S1
  *Elset, elset=ASSEMBLY___CONT-BT-15-12_MSM_12_S2
  *Elset, elset=ASSEMBLY___CONT-BT-15-12_MSM_12_S3
  *Elset, elset=ASSEMBLY___CONT-BT-15-12_MSM_12_S4
  *Elset, elset=ASSEMBLY___CONT-BT-15-12_MSM_13_S1
  *Elset, elset=ASSEMBLY___CONT-BT-15-12_MSM_13_S2
  *Elset, elset=ASSEMBLY___CONT-BT-15-12_MSM_13_S3
  *Elset, elset=ASSEMBLY___CONT-BT-15-12_MSM_13_S4
  *Elset, elset=ASSEMBLY___CONT-BT-15-12_MSM_14_S2
  *Elset, elset=ASSEMBLY___CONT-BT-15-12_MSM_14_S3
  *Elset, elset=ASSEMBLY___CONT-BT-15-12_MSM_14_S4
  *Elset, elset=ASSEMBLY___CONT-BT-15-12_MSM_18_S1
  *Elset, elset=ASSEMBLY___CONT-BT-15-12_MSM_18_S3
  *Elset, elset=ASSEMBLY___CONT-BT-15-12_MSM_18_S4
  *Elset, elset=ASSEMBLY___CONT-BT-15-12_MSM_21_S1
  *Elset, elset=ASSEMBLY___CONT-BT-15-12_MSM_21_S2
  *Elset, elset=ASSEMBLY___CONT-BT-15-12_MSM_21_S3
  *Elset, elset=ASSEMBLY___CONT-BT-15-12_MSM_21_S4
  *Elset, elset=ASSEMBLY___CONT-BT-15-12_MSM_6_S3
  *Elset, elset=ASSEMBLY___CONT-BT-15-12_MSM_6_S4
  *Elset, elset=ASSEMBLY___CONT-BT-15-12_SSM_1_S1
  *Elset, elset=ASSEMBLY___CONT-BT-15-12_SSM_1_S2
  *Elset, elset=ASSEMBLY___CONT-BT-15-12_SSM_1_S3
  *Elset, elset=ASSEMBLY___CONT-BT-15-12_SSM_1_S4
  *Elset, elset=ASSEMBLY___CONT-BT-15-12_SSM_2_S1
  *Elset, elset=ASSEMBLY___CONT-BT-15-12_SSM_2_S2
  *Elset, elset=ASSEMBLY___CONT-BT-15-12_SSM_2_S3
  *Elset, elset=ASSEMBLY___CONT-BT-15-12_SSM_2_S4
  *Elset, elset=ASSEMBLY___CONT-BT-15-12_SSM_3_S1
  *Elset, elset=ASSEMBLY___CONT-BT-15-12_SSM_3_S2
  *Elset, elset=ASSEMBLY___CONT-BT-15-12_SSM_3_S3
  *Elset, elset=ASSEMBLY___CONT-BT-15-12_SSM_3_S4
  *Elset, elset=ASSEMBLY___CONT-BT-15-12_SSM_4_S1
  *Elset, elset=ASSEMBLY___CONT-BT-15-12_SSM_4_S2
  *Elset, elset=ASSEMBLY___CONT-BT-15-12_SSM_4_S3
  *Elset, elset=ASSEMBLY___CONT-BT-15-12_SSM_4_S4
  *Elset, elset=ASSEMBLY___CONT-BT-15-12_SSM_5_S1
  *Elset, elset=ASSEMBLY___CONT-BT-15-12_SSM_5_S2
  *Elset, elset=ASSEMBLY___CONT-BT-15-12_SSM_5_S3
  *Elset, elset=ASSEMBLY___CONT-BT-15-12_SSM_5_S4
  *Elset, elset=ASSEMBLY___CONT-BT-15-12_SSM_6_S1
  *Elset, elset=ASSEMBLY___CONT-BT-15-12_SSM_6_S2
  *Elset, elset=ASSEMBLY___CONT-BT-15-12_SSM_6_S3
  *Elset, elset=ASSEMBLY___CONT-BT-15-12_SSM_6_S4
  *Elset, elset=ASSEMBLY___CONT-BT-15-13_MSM_11_S1
  *Elset, elset=ASSEMBLY___CONT-BT-15-13_MSM_11_S2
  *Elset, elset=ASSEMBLY___CONT-BT-15-13_MSM_11_S3
  *Elset, elset=ASSEMBLY___CONT-BT-15-13_MSM_11_S4
  *Elset, elset=ASSEMBLY___CONT-BT-15-13_MSM_12_S1
  *Elset, elset=ASSEMBLY___CONT-BT-15-13_MSM_12_S2
  *Elset, elset=ASSEMBLY___CONT-BT-15-13_MSM_12_S3
  *Elset, elset=ASSEMBLY___CONT-BT-15-13_MSM_12_S4
  *Elset, elset=ASSEMBLY___CONT-BT-15-13_MSM_13_S1
  *Elset, elset=ASSEMBLY___CONT-BT-15-13_MSM_13_S2
  *Elset, elset=ASSEMBLY___CONT-BT-15-13_MSM_13_S3
  *Elset, elset=ASSEMBLY___CONT-BT-15-13_MSM_13_S4
  *Elset, elset=ASSEMBLY___CONT-BT-15-13_MSM_14_S2
  *Elset, elset=ASSEMBLY___CONT-BT-15-13_MSM_14_S3
  *Elset, elset=ASSEMBLY___CONT-BT-15-13_MSM_14_S4
  *Elset, elset=ASSEMBLY___CONT-BT-15-13_MSM_18_S1
  *Elset, elset=ASSEMBLY___CONT-BT-15-13_MSM_18_S3
  *Elset, elset=ASSEMBLY___CONT-BT-15-13_MSM_18_S4
  *Elset, elset=ASSEMBLY___CONT-BT-15-13_MSM_21_S1
  *Elset, elset=ASSEMBLY___CONT-BT-15-13_MSM_21_S2
  *Elset, elset=ASSEMBLY___CONT-BT-15-13_MSM_21_S3
  *Elset, elset=ASSEMBLY___CONT-BT-15-13_MSM_21_S4
  *Elset, elset=ASSEMBLY___CONT-BT-15-13_MSM_6_S3
  *Elset, elset=ASSEMBLY___CONT-BT-15-13_MSM_6_S4
  *Elset, elset=ASSEMBLY___CONT-BT-15-13_SSM_1_S1
  *Elset, elset=ASSEMBLY___CONT-BT-15-13_SSM_1_S2
  *Elset, elset=ASSEMBLY___CONT-BT-15-13_SSM_1_S3
  *Elset, elset=ASSEMBLY___CONT-BT-15-13_SSM_1_S4
  *Elset, elset=ASSEMBLY___CONT-BT-15-13_SSM_2_S1
  *Elset, elset=ASSEMBLY___CONT-BT-15-13_SSM_2_S2
  *Elset, elset=ASSEMBLY___CONT-BT-15-13_SSM_2_S3
  *Elset, elset=ASSEMBLY___CONT-BT-15-13_SSM_2_S4
  *Elset, elset=ASSEMBLY___CONT-BT-2-1_MSM_3_S1
  *Elset, elset=ASSEMBLY___CONT-BT-2-1_MSM_3_S2
  *Elset, elset=ASSEMBLY___CONT-BT-2-1_MSM_3_S3
  *Elset, elset=ASSEMBLY___CONT-BT-2-1_MSM_3_S4
  *Elset, elset=ASSEMBLY___CONT-BT-2-1_SSM_1_S1
  *Elset, elset=ASSEMBLY___CONT-BT-2-1_SSM_1_S2
  *Elset, elset=ASSEMBLY___CONT-BT-2-1_SSM_1_S3
  *Elset, elset=ASSEMBLY___CONT-BT-2-1_SSM_1_S4
  *Elset, elset=ASSEMBLY___CONT-BT-2-1_SSM_2_S1
  *Elset, elset=ASSEMBLY___CONT-BT-2-1_SSM_2_S2
  *Elset, elset=ASSEMBLY___CONT-BT-2-1_SSM_2_S3
  *Elset, elset=ASSEMBLY___CONT-BT-2-1_SSM_2_S4
  *Elset, elset=ASSEMBLY___CONT-BT-2-1_SSM_3_S1
  *Elset, elset=ASSEMBLY___CONT-BT-2-1_SSM_3_S2
  *Elset, elset=ASSEMBLY___CONT-BT-2-1_SSM_3_S3
  *Elset, elset=ASSEMBLY___CONT-BT-2-1_SSM_3_S4
  *Elset, elset=ASSEMBLY___CONT-BT-2-1_SSM_4_S1
  *Elset, elset=ASSEMBLY___CONT-BT-2-1_SSM_4_S3
  *Elset, elset=ASSEMBLY___CONT-BT-2-1_SSM_4_S4
  *Elset, elset=ASSEMBLY___CONT-BT-2-1_SSM_5_S1
  *Elset, elset=ASSEMBLY___CONT-BT-2-1_SSM_5_S2
  *Elset, elset=ASSEMBLY___CONT-BT-2-1_SSM_5_S3
  *Elset, elset=ASSEMBLY___CONT-BT-2-1_SSM_5_S4
  *Elset, elset=ASSEMBLY___CONT-BT-2-1_SSM_6_S1
  *Elset, elset=ASSEMBLY___CONT-BT-2-1_SSM_6_S2
  *Elset, elset=ASSEMBLY___CONT-BT-2-1_SSM_6_S3
  *Elset, elset=ASSEMBLY___CONT-BT-2-1_SSM_6_S4
  *Elset, elset=ASSEMBLY___CONT-BT-2-1_SSM_7_S1
  *Elset, elset=ASSEMBLY___CONT-BT-2-1_SSM_7_S2
  *Elset, elset=ASSEMBLY___CONT-BT-2-1_SSM_7_S3
  *Elset, elset=ASSEMBLY___CONT-BT-2-1_SSM_7_S4
  *Elset, elset=ASSEMBLY___CONT-BT-2-1_SSM_8_S1
  *Elset, elset=ASSEMBLY___CONT-BT-2-1_SSM_8_S2
  *Elset, elset=ASSEMBLY___CONT-BT-2-1_SSM_8_S3
  *Elset, elset=ASSEMBLY___CONT-BT-2-1_SSM_8_S4
  *Elset, elset=ASSEMBLY___CONT-BT-3-1_MSM_11_S1
  *Elset, elset=ASSEMBLY___CONT-BT-3-1_MSM_11_S2
  *Elset, elset=ASSEMBLY___CONT-BT-3-1_MSM_11_S3
  *Elset, elset=ASSEMBLY___CONT-BT-3-1_MSM_11_S4
  *Elset, elset=ASSEMBLY___CONT-BT-3-1_MSM_12_S1
  *Elset, elset=ASSEMBLY___CONT-BT-3-1_MSM_12_S2
  *Elset, elset=ASSEMBLY___CONT-BT-3-1_MSM_12_S3
  *Elset, elset=ASSEMBLY___CONT-BT-3-1_MSM_12_S4
  *Elset, elset=ASSEMBLY___CONT-BT-3-1_MSM_13_S1
  *Elset, elset=ASSEMBLY___CONT-BT-3-1_MSM_13_S2
  *Elset, elset=ASSEMBLY___CONT-BT-3-1_MSM_13_S3
  *Elset, elset=ASSEMBLY___CONT-BT-3-1_MSM_13_S4
  *Elset, elset=ASSEMBLY___CONT-BT-3-1_MSM_14_S2
  *Elset, elset=ASSEMBLY___CONT-BT-3-1_MSM_14_S3
  *Elset, elset=ASSEMBLY___CONT-BT-3-1_MSM_14_S4
  *Elset, elset=ASSEMBLY___CONT-BT-3-1_MSM_18_S1
  *Elset, elset=ASSEMBLY___CONT-BT-3-1_MSM_18_S3
  *Elset, elset=ASSEMBLY___CONT-BT-3-1_MSM_18_S4
  *Elset, elset=ASSEMBLY___CONT-BT-3-1_MSM_21_S1
  *Elset, elset=ASSEMBLY___CONT-BT-3-1_MSM_21_S2
  *Elset, elset=ASSEMBLY___CONT-BT-3-1_MSM_21_S3
  *Elset, elset=ASSEMBLY___CONT-BT-3-1_MSM_21_S4
  *Elset, elset=ASSEMBLY___CONT-BT-3-1_MSM_6_S3
  *Elset, elset=ASSEMBLY___CONT-BT-3-1_MSM_6_S4
  *Elset, elset=ASSEMBLY___CONT-BT-3-1_SSM_1_S1
  *Elset, elset=ASSEMBLY___CONT-BT-3-1_SSM_1_S2
  *Elset, elset=ASSEMBLY___CONT-BT-3-1_SSM_1_S3
  *Elset, elset=ASSEMBLY___CONT-BT-3-1_SSM_1_S4
  *Elset, elset=ASSEMBLY___CONT-BT-3-1_SSM_2_S1
  *Elset, elset=ASSEMBLY___CONT-BT-3-1_SSM_2_S2
  *Elset, elset=ASSEMBLY___CONT-BT-3-1_SSM_2_S3
  *Elset, elset=ASSEMBLY___CONT-BT-3-1_SSM_2_S4
  *Elset, elset=ASSEMBLY___CONT-BT-3-1_SSM_3_S1
  *Elset, elset=ASSEMBLY___CONT-BT-3-1_SSM_3_S2
  *Elset, elset=ASSEMBLY___CONT-BT-3-1_SSM_3_S3
  *Elset, elset=ASSEMBLY___CONT-BT-3-1_SSM_3_S4
  *Elset, elset=ASSEMBLY___CONT-BT-3-1_SSM_4_S1
  *Elset, elset=ASSEMBLY___CONT-BT-3-1_SSM_4_S3
  *Elset, elset=ASSEMBLY___CONT-BT-3-1_SSM_4_S4
  *Elset, elset=ASSEMBLY___CONT-BT-3-1_SSM_5_S1
  *Elset, elset=ASSEMBLY___CONT-BT-3-1_SSM_5_S2
  *Elset, elset=ASSEMBLY___CONT-BT-3-1_SSM_5_S3
  *Elset, elset=ASSEMBLY___CONT-BT-3-1_SSM_5_S4
  *Elset, elset=ASSEMBLY___CONT-BT-3-1_SSM_6_S1
  *Elset, elset=ASSEMBLY___CONT-BT-3-1_SSM_6_S2
  *Elset, elset=ASSEMBLY___CONT-BT-3-1_SSM_6_S3
  *Elset, elset=ASSEMBLY___CONT-BT-3-1_SSM_6_S4
  *Elset, elset=ASSEMBLY___CONT-BT-3-1_SSM_7_S1
  *Elset, elset=ASSEMBLY___CONT-BT-3-1_SSM_7_S2
  *Elset, elset=ASSEMBLY___CONT-BT-3-1_SSM_7_S3
  *Elset, elset=ASSEMBLY___CONT-BT-3-1_SSM_7_S4
  *Elset, elset=ASSEMBLY___CONT-BT-3-1_SSM_8_S1
  *Elset, elset=ASSEMBLY___CONT-BT-3-1_SSM_8_S2
  *Elset, elset=ASSEMBLY___CONT-BT-3-1_SSM_8_S3
  *Elset, elset=ASSEMBLY___CONT-BT-3-1_SSM_8_S4
  *Elset, elset=ASSEMBLY___CONT-BT-4-2_MSM_11_S1
  *Elset, elset=ASSEMBLY___CONT-BT-4-2_MSM_11_S2
  *Elset, elset=ASSEMBLY___CONT-BT-4-2_MSM_11_S3
  *Elset, elset=ASSEMBLY___CONT-BT-4-2_MSM_11_S4
  *Elset, elset=ASSEMBLY___CONT-BT-4-2_MSM_12_S1
  *Elset, elset=ASSEMBLY___CONT-BT-4-2_MSM_12_S2
  *Elset, elset=ASSEMBLY___CONT-BT-4-2_MSM_12_S3
  *Elset, elset=ASSEMBLY___CONT-BT-4-2_MSM_12_S4
  *Elset, elset=ASSEMBLY___CONT-BT-4-2_MSM_13_S1
  *Elset, elset=ASSEMBLY___CONT-BT-4-2_MSM_13_S2
  *Elset, elset=ASSEMBLY___CONT-BT-4-2_MSM_13_S3
  *Elset, elset=ASSEMBLY___CONT-BT-4-2_MSM_13_S4
  *Elset, elset=ASSEMBLY___CONT-BT-4-2_MSM_14_S2
  *Elset, elset=ASSEMBLY___CONT-BT-4-2_MSM_14_S3
  *Elset, elset=ASSEMBLY___CONT-BT-4-2_MSM_14_S4
  *Elset, elset=ASSEMBLY___CONT-BT-4-2_MSM_18_S1
  *Elset, elset=ASSEMBLY___CONT-BT-4-2_MSM_18_S3
  *Elset, elset=ASSEMBLY___CONT-BT-4-2_MSM_18_S4
  *Elset, elset=ASSEMBLY___CONT-BT-4-2_MSM_21_S1
  *Elset, elset=ASSEMBLY___CONT-BT-4-2_MSM_21_S2
  *Elset, elset=ASSEMBLY___CONT-BT-4-2_MSM_21_S3
  *Elset, elset=ASSEMBLY___CONT-BT-4-2_MSM_21_S4
  *Elset, elset=ASSEMBLY___CONT-BT-4-2_MSM_6_S3
  *Elset, elset=ASSEMBLY___CONT-BT-4-2_MSM_6_S4
  *Elset, elset=ASSEMBLY___CONT-BT-4-2_SSM_1_S1
  *Elset, elset=ASSEMBLY___CONT-BT-4-2_SSM_1_S2
  *Elset, elset=ASSEMBLY___CONT-BT-4-2_SSM_1_S3
  *Elset, elset=ASSEMBLY___CONT-BT-4-2_SSM_1_S4
  *Elset, elset=ASSEMBLY___CONT-BT-4-2_SSM_2_S1
  *Elset, elset=ASSEMBLY___CONT-BT-4-2_SSM_2_S2
  *Elset, elset=ASSEMBLY___CONT-BT-4-2_SSM_2_S3
  *Elset, elset=ASSEMBLY___CONT-BT-4-2_SSM_2_S4
  *Elset, elset=ASSEMBLY___CONT-BT-4-3_MSM_11_S1
  *Elset, elset=ASSEMBLY___CONT-BT-4-3_MSM_11_S2
  *Elset, elset=ASSEMBLY___CONT-BT-4-3_MSM_11_S3
  *Elset, elset=ASSEMBLY___CONT-BT-4-3_MSM_11_S4
  *Elset, elset=ASSEMBLY___CONT-BT-4-3_MSM_12_S1
  *Elset, elset=ASSEMBLY___CONT-BT-4-3_MSM_12_S2
  *Elset, elset=ASSEMBLY___CONT-BT-4-3_MSM_12_S3
  *Elset, elset=ASSEMBLY___CONT-BT-4-3_MSM_12_S4
  *Elset, elset=ASSEMBLY___CONT-BT-4-3_MSM_13_S1
  *Elset, elset=ASSEMBLY___CONT-BT-4-3_MSM_13_S2
  *Elset, elset=ASSEMBLY___CONT-BT-4-3_MSM_13_S3
  *Elset, elset=ASSEMBLY___CONT-BT-4-3_MSM_13_S4
  *Elset, elset=ASSEMBLY___CONT-BT-4-3_MSM_14_S2
  *Elset, elset=ASSEMBLY___CONT-BT-4-3_MSM_14_S3
  *Elset, elset=ASSEMBLY___CONT-BT-4-3_MSM_14_S4
  *Elset, elset=ASSEMBLY___CONT-BT-4-3_MSM_18_S1
  *Elset, elset=ASSEMBLY___CONT-BT-4-3_MSM_18_S3
  *Elset, elset=ASSEMBLY___CONT-BT-4-3_MSM_18_S4
  *Elset, elset=ASSEMBLY___CONT-BT-4-3_MSM_21_S1
  *Elset, elset=ASSEMBLY___CONT-BT-4-3_MSM_21_S2
  *Elset, elset=ASSEMBLY___CONT-BT-4-3_MSM_21_S3
  *Elset, elset=ASSEMBLY___CONT-BT-4-3_MSM_21_S4
  *Elset, elset=ASSEMBLY___CONT-BT-4-3_MSM_6_S3
  *Elset, elset=ASSEMBLY___CONT-BT-4-3_MSM_6_S4
  *Elset, elset=ASSEMBLY___CONT-BT-4-3_SSM_1_S1
  *Elset, elset=ASSEMBLY___CONT-BT-4-3_SSM_1_S2
  *Elset, elset=ASSEMBLY___CONT-BT-4-3_SSM_1_S3
  *Elset, elset=ASSEMBLY___CONT-BT-4-3_SSM_1_S4
  *Elset, elset=ASSEMBLY___CONT-BT-4-3_SSM_2_S1
  *Elset, elset=ASSEMBLY___CONT-BT-4-3_SSM_2_S2
  *Elset, elset=ASSEMBLY___CONT-BT-4-3_SSM_2_S3
  *Elset, elset=ASSEMBLY___CONT-BT-4-3_SSM_2_S4
  *Elset, elset=ASSEMBLY___CONT-BT-4-3_SSM_3_S1
  *Elset, elset=ASSEMBLY___CONT-BT-4-3_SSM_3_S2
  *Elset, elset=ASSEMBLY___CONT-BT-4-3_SSM_3_S3
  *Elset, elset=ASSEMBLY___CONT-BT-4-3_SSM_3_S4
  *Elset, elset=ASSEMBLY___CONT-BT-4-3_SSM_4_S1
  *Elset, elset=ASSEMBLY___CONT-BT-4-3_SSM_4_S2
  *Elset, elset=ASSEMBLY___CONT-BT-4-3_SSM_4_S3
  *Elset, elset=ASSEMBLY___CONT-BT-4-3_SSM_4_S4
  *Elset, elset=ASSEMBLY___CONT-BT-4-3_SSM_5_S1
  *Elset, elset=ASSEMBLY___CONT-BT-4-3_SSM_5_S2
  *Elset, elset=ASSEMBLY___CONT-BT-4-3_SSM_5_S3
  *Elset, elset=ASSEMBLY___CONT-BT-4-3_SSM_5_S4
  *Elset, elset=ASSEMBLY___CONT-BT-4-3_SSM_6_S1
  *Elset, elset=ASSEMBLY___CONT-BT-4-3_SSM_6_S2
  *Elset, elset=ASSEMBLY___CONT-BT-4-3_SSM_6_S3
  *Elset, elset=ASSEMBLY___CONT-BT-4-3_SSM_6_S4
  *Elset, elset=ASSEMBLY___CONT-BT-5-3_MSM_3_S1
  *Elset, elset=ASSEMBLY___CONT-BT-5-3_MSM_3_S2
  *Elset, elset=ASSEMBLY___CONT-BT-5-3_MSM_3_S3
  *Elset, elset=ASSEMBLY___CONT-BT-5-3_MSM_3_S4
  *Elset, elset=ASSEMBLY___CONT-BT-5-3_SSM_1_S1
  *Elset, elset=ASSEMBLY___CONT-BT-5-3_SSM_1_S2
  *Elset, elset=ASSEMBLY___CONT-BT-5-3_SSM_1_S3
  *Elset, elset=ASSEMBLY___CONT-BT-5-3_SSM_1_S4
  *Elset, elset=ASSEMBLY___CONT-BT-5-3_SSM_2_S1
  *Elset, elset=ASSEMBLY___CONT-BT-5-3_SSM_2_S2
  *Elset, elset=ASSEMBLY___CONT-BT-5-3_SSM_2_S3
  *Elset, elset=ASSEMBLY___CONT-BT-5-3_SSM_2_S4
  *Elset, elset=ASSEMBLY___CONT-BT-5-3_SSM_3_S1
  *Elset, elset=ASSEMBLY___CONT-BT-5-3_SSM_3_S2
  *Elset, elset=ASSEMBLY___CONT-BT-5-3_SSM_3_S3
  *Elset, elset=ASSEMBLY___CONT-BT-5-3_SSM_3_S4
  *Elset, elset=ASSEMBLY___CONT-BT-5-3_SSM_4_S1
  *Elset, elset=ASSEMBLY___CONT-BT-5-3_SSM_4_S2
  *Elset, elset=ASSEMBLY___CONT-BT-5-3_SSM_4_S3
  *Elset, elset=ASSEMBLY___CONT-BT-5-3_SSM_4_S4
  *Elset, elset=ASSEMBLY___CONT-BT-5-3_SSM_5_S1
  *Elset, elset=ASSEMBLY___CONT-BT-5-3_SSM_5_S2
  *Elset, elset=ASSEMBLY___CONT-BT-5-3_SSM_5_S3
  *Elset, elset=ASSEMBLY___CONT-BT-5-3_SSM_5_S4
  *Elset, elset=ASSEMBLY___CONT-BT-5-3_SSM_6_S1
  *Elset, elset=ASSEMBLY___CONT-BT-5-3_SSM_6_S2
  *Elset, elset=ASSEMBLY___CONT-BT-5-3_SSM_6_S3
  *Elset, elset=ASSEMBLY___CONT-BT-5-3_SSM_6_S4
  *Elset, elset=ASSEMBLY___CONT-BT-6-4_MSM_3_S1
  *Elset, elset=ASSEMBLY___CONT-BT-6-4_MSM_3_S2
  *Elset, elset=ASSEMBLY___CONT-BT-6-4_MSM_3_S3
  *Elset, elset=ASSEMBLY___CONT-BT-6-4_MSM_3_S4
  *Elset, elset=ASSEMBLY___CONT-BT-6-4_SSM_1_S1
  *Elset, elset=ASSEMBLY___CONT-BT-6-4_SSM_1_S2
  *Elset, elset=ASSEMBLY___CONT-BT-6-4_SSM_1_S3
  *Elset, elset=ASSEMBLY___CONT-BT-6-4_SSM_1_S4
  *Elset, elset=ASSEMBLY___CONT-BT-6-4_SSM_2_S1
  *Elset, elset=ASSEMBLY___CONT-BT-6-4_SSM_2_S2
  *Elset, elset=ASSEMBLY___CONT-BT-6-4_SSM_2_S3
  *Elset, elset=ASSEMBLY___CONT-BT-6-4_SSM_2_S4
  *Elset, elset=ASSEMBLY___CONT-BT-6-4_SSM_3_S1
  *Elset, elset=ASSEMBLY___CONT-BT-6-4_SSM_3_S2
  *Elset, elset=ASSEMBLY___CONT-BT-6-4_SSM_3_S3
  *Elset, elset=ASSEMBLY___CONT-BT-6-4_SSM_3_S4
  *Elset, elset=ASSEMBLY___CONT-BT-6-4_SSM_4_S1
  *Elset, elset=ASSEMBLY___CONT-BT-6-4_SSM_4_S2
  *Elset, elset=ASSEMBLY___CONT-BT-6-4_SSM_4_S3
  *Elset, elset=ASSEMBLY___CONT-BT-6-4_SSM_4_S4
  *Elset, elset=ASSEMBLY___CONT-BT-6-4_SSM_5_S1
  *Elset, elset=ASSEMBLY___CONT-BT-6-4_SSM_5_S2
  *Elset, elset=ASSEMBLY___CONT-BT-6-4_SSM_5_S3
  *Elset, elset=ASSEMBLY___CONT-BT-6-4_SSM_5_S4
  *Elset, elset=ASSEMBLY___CONT-BT-6-4_SSM_6_S1
  *Elset, elset=ASSEMBLY___CONT-BT-6-4_SSM_6_S2
  *Elset, elset=ASSEMBLY___CONT-BT-6-4_SSM_6_S3
  *Elset, elset=ASSEMBLY___CONT-BT-6-4_SSM_6_S4
  *Elset, elset=ASSEMBLY___CONT-BT-7-4_MSM_11_S1
  *Elset, elset=ASSEMBLY___CONT-BT-7-4_MSM_11_S2
  *Elset, elset=ASSEMBLY___CONT-BT-7-4_MSM_11_S3
  *Elset, elset=ASSEMBLY___CONT-BT-7-4_MSM_11_S4
  *Elset, elset=ASSEMBLY___CONT-BT-7-4_MSM_12_S1
  *Elset, elset=ASSEMBLY___CONT-BT-7-4_MSM_12_S2
  *Elset, elset=ASSEMBLY___CONT-BT-7-4_MSM_12_S3
  *Elset, elset=ASSEMBLY___CONT-BT-7-4_MSM_12_S4
  *Elset, elset=ASSEMBLY___CONT-BT-7-4_MSM_13_S1
  *Elset, elset=ASSEMBLY___CONT-BT-7-4_MSM_13_S2
  *Elset, elset=ASSEMBLY___CONT-BT-7-4_MSM_13_S3
  *Elset, elset=ASSEMBLY___CONT-BT-7-4_MSM_13_S4
  *Elset, elset=ASSEMBLY___CONT-BT-7-4_MSM_14_S2
  *Elset, elset=ASSEMBLY___CONT-BT-7-4_MSM_14_S3
  *Elset, elset=ASSEMBLY___CONT-BT-7-4_MSM_14_S4
  *Elset, elset=ASSEMBLY___CONT-BT-7-4_MSM_18_S1
  *Elset, elset=ASSEMBLY___CONT-BT-7-4_MSM_18_S3
  *Elset, elset=ASSEMBLY___CONT-BT-7-4_MSM_18_S4
  *Elset, elset=ASSEMBLY___CONT-BT-7-4_MSM_21_S1
  *Elset, elset=ASSEMBLY___CONT-BT-7-4_MSM_21_S2
  *Elset, elset=ASSEMBLY___CONT-BT-7-4_MSM_21_S3
  *Elset, elset=ASSEMBLY___CONT-BT-7-4_MSM_21_S4
  *Elset, elset=ASSEMBLY___CONT-BT-7-4_MSM_6_S3
  *Elset, elset=ASSEMBLY___CONT-BT-7-4_MSM_6_S4
  *Elset, elset=ASSEMBLY___CONT-BT-7-4_SSM_1_S1
  *Elset, elset=ASSEMBLY___CONT-BT-7-4_SSM_1_S2
  *Elset, elset=ASSEMBLY___CONT-BT-7-4_SSM_1_S3
  *Elset, elset=ASSEMBLY___CONT-BT-7-4_SSM_1_S4
  *Elset, elset=ASSEMBLY___CONT-BT-7-4_SSM_2_S1
  *Elset, elset=ASSEMBLY___CONT-BT-7-4_SSM_2_S2
  *Elset, elset=ASSEMBLY___CONT-BT-7-4_SSM_2_S3
  *Elset, elset=ASSEMBLY___CONT-BT-7-4_SSM_2_S4
  *Elset, elset=ASSEMBLY___CONT-BT-7-4_SSM_3_S1
  *Elset, elset=ASSEMBLY___CONT-BT-7-4_SSM_3_S2
  *Elset, elset=ASSEMBLY___CONT-BT-7-4_SSM_3_S3
  *Elset, elset=ASSEMBLY___CONT-BT-7-4_SSM_3_S4
  *Elset, elset=ASSEMBLY___CONT-BT-7-4_SSM_4_S1
  *Elset, elset=ASSEMBLY___CONT-BT-7-4_SSM_4_S2
  *Elset, elset=ASSEMBLY___CONT-BT-7-4_SSM_4_S3
  *Elset, elset=ASSEMBLY___CONT-BT-7-4_SSM_4_S4
  *Elset, elset=ASSEMBLY___CONT-BT-7-4_SSM_5_S1
  *Elset, elset=ASSEMBLY___CONT-BT-7-4_SSM_5_S2
  *Elset, elset=ASSEMBLY___CONT-BT-7-4_SSM_5_S3
  *Elset, elset=ASSEMBLY___CONT-BT-7-4_SSM_5_S4
  *Elset, elset=ASSEMBLY___CONT-BT-7-4_SSM_6_S1
  *Elset, elset=ASSEMBLY___CONT-BT-7-4_SSM_6_S2
  *Elset, elset=ASSEMBLY___CONT-BT-7-4_SSM_6_S3
  *Elset, elset=ASSEMBLY___CONT-BT-7-4_SSM_6_S4
  *Elset, elset=ASSEMBLY___CONT-BT-7-5_MSM_11_S1
  *Elset, elset=ASSEMBLY___CONT-BT-7-5_MSM_11_S2
  *Elset, elset=ASSEMBLY___CONT-BT-7-5_MSM_11_S3
  *Elset, elset=ASSEMBLY___CONT-BT-7-5_MSM_11_S4
  *Elset, elset=ASSEMBLY___CONT-BT-7-5_MSM_12_S1
  *Elset, elset=ASSEMBLY___CONT-BT-7-5_MSM_12_S2
  *Elset, elset=ASSEMBLY___CONT-BT-7-5_MSM_12_S3
  *Elset, elset=ASSEMBLY___CONT-BT-7-5_MSM_12_S4
  *Elset, elset=ASSEMBLY___CONT-BT-7-5_MSM_13_S1
  *Elset, elset=ASSEMBLY___CONT-BT-7-5_MSM_13_S2
  *Elset, elset=ASSEMBLY___CONT-BT-7-5_MSM_13_S3
  *Elset, elset=ASSEMBLY___CONT-BT-7-5_MSM_13_S4
  *Elset, elset=ASSEMBLY___CONT-BT-7-5_MSM_14_S2
  *Elset, elset=ASSEMBLY___CONT-BT-7-5_MSM_14_S3
  *Elset, elset=ASSEMBLY___CONT-BT-7-5_MSM_14_S4
  *Elset, elset=ASSEMBLY___CONT-BT-7-5_MSM_18_S1
  *Elset, elset=ASSEMBLY___CONT-BT-7-5_MSM_18_S3
  *Elset, elset=ASSEMBLY___CONT-BT-7-5_MSM_18_S4
  *Elset, elset=ASSEMBLY___CONT-BT-7-5_MSM_21_S1
  *Elset, elset=ASSEMBLY___CONT-BT-7-5_MSM_21_S2
  *Elset, elset=ASSEMBLY___CONT-BT-7-5_MSM_21_S3
  *Elset, elset=ASSEMBLY___CONT-BT-7-5_MSM_21_S4
  *Elset, elset=ASSEMBLY___CONT-BT-7-5_MSM_6_S3
  *Elset, elset=ASSEMBLY___CONT-BT-7-5_MSM_6_S4
  *Elset, elset=ASSEMBLY___CONT-BT-7-5_SSM_1_S1
[...]
  *boundary, op=NEW
  *boundary, op=NEW
  *boundary, op=NEW
  *boundary, op=NEW
  *boundary, op=NEW
  *boundary, op=NEW
  *boundary, op=NEW
  *boundary, op=NEW
  *boundary, op=NEW
  *boundary, op=NEW
  *boundary, op=NEW
  *boundary, op=NEW
  *boundary, op=NEW
  *boundary, op=NEW
  *boundary, op=NEW
  *boundary, op=NEW
  *boundary, op=NEW
  *boundary, op=NEW
  *boundary, op=NEW
  *boundary, op=NEW
  *boundary, op=NEW
  *boundary, op=NEW
  *boundary, op=NEW
  *boundary, op=NEW
  *boundary, op=NEW
  *boundary, op=NEW
  *boundary, op=NEW
  *boundary, op=NEW
  *boundary, op=NEW
  *boundary, op=NEW
  *boundary, op=NEW
  *boundary, op=NEW
  *boundary, op=NEW
  *boundary, op=NEW
  *boundary, op=NEW
  *boundary, op=NEW
  *boundary, op=NEW
  *boundary, op=NEW
  *boundary, op=NEW
  *boundary, op=NEW
  *boundary, op=NEW
  *boundary, op=NEW
  *boundary, op=NEW
  *boundary, op=NEW
  *boundary, op=NEW
  *boundary, op=NEW
  *boundary, op=NEW
  *boundary, op=NEW
  *boundary, op=NEW
  *boundary, op=NEW
  *boundary, op=NEW
  *boundary, op=NEW
  *boundary, op=NEW
  *boundary, op=NEW
  *boundary, op=NEW
  *boundary, op=NEW
  *boundary, op=NEW
  *boundary, op=NEW
  *boundary, op=NEW
  *boundary, op=NEW
  *boundary, op=NEW
  *boundary, op=NEW
  *boundary, op=NEW
  *boundary, op=NEW
  *boundary, op=NEW
  *boundary, op=NEW
  *boundary, op=NEW
  *boundary, op=NEW
  *boundary, op=NEW
  *boundary, op=NEW
  *boundary, op=NEW
  *boundary, op=NEW
  *boundary, op=NEW
  *boundary, op=NEW
  *boundary, op=NEW
  *boundary, op=NEW
  *boundary, op=NEW
  *boundary, op=NEW
  *boundary, op=NEW
  *boundary, op=NEW
  *boundary, op=NEW
  *boundary, op=NEW
  *boundary, op=NEW
  *boundary, op=NEW
  *boundary, op=NEW
  *boundary, op=NEW
  *boundary, op=NEW
  *boundary, op=NEW
  *boundary, op=NEW
  *boundary, op=NEW
  *boundary, op=NEW
  *boundary, op=NEW
  *boundary, op=NEW
  *boundary, op=NEW
  *boundary, op=NEW
  *boundary, op=NEW
  *boundary, op=NEW
  *boundary, op=NEW
  *boundary, op=NEW
  *boundary, op=NEW
  *boundary, op=NEW
  *boundary, op=NEW
  *boundary, op=NEW
  *boundary, op=NEW
  *boundary, op=NEW
  *boundary, op=NEW
  *boundary, op=NEW
  *boundary, op=NEW
  *boundary, op=NEW
  *boundary, op=NEW
  *boundary, op=NEW
  *boundary, op=NEW
  *boundary, op=NEW
  *boundary, op=NEW
  *boundary, op=NEW
  *boundary, op=NEW
  *boundary, op=NEW
  *boundary, op=NEW
  *boundary, op=NEW
  *boundary, op=NEW
  *boundary, op=NEW
  *boundary, op=NEW
  *boundary, op=NEW
  *boundary, op=NEW
  *boundary, op=NEW
  *boundary, op=NEW
  *boundary, op=NEW
  *boundary, op=NEW
  *boundary, op=NEW
  *boundary, op=NEW
  *boundary, op=NEW
  *boundary, op=NEW
  *boundary, op=NEW
  *boundary, op=NEW
  *boundary, op=NEW
  *boundary, op=NEW
  *boundary, op=NEW
  *boundary, op=NEW
  *boundary, op=NEW
  *boundary, op=NEW
  *boundary, op=NEW
  *boundary, op=NEW
  *boundary, op=NEW
  *boundary, op=NEW
  *boundary, op=NEW
  *boundary, op=NEW
  *boundary, op=NEW
  *boundary, op=NEW
  *boundary, op=NEW
  *boundary, op=NEW
  *boundary, op=NEW
  *boundary, op=NEW
  *boundary, op=NEW
  *boundary, op=NEW
  *boundary, op=NEW
  *boundary, op=NEW
  *boundary, op=NEW
  *boundary, op=NEW
  *boundary, op=NEW
  *boundary, op=NEW
  *boundary, op=NEW
  *boundary, op=NEW
  *boundary, op=NEW
  *boundary, op=NEW
  *boundary, op=NEW
  *boundary, op=NEW
  *boundary, op=NEW
  *boundary, op=NEW
  *boundary, op=NEW
  *boundary, op=NEW
  *boundary, op=NEW
  *boundary, op=NEW
  *boundary, op=NEW
  *boundary, op=NEW
  *boundary, op=NEW
  *boundary, op=NEW
  *boundary, op=NEW
  *boundary, op=NEW
  *boundary, op=NEW
  *boundary, op=NEW
  *boundary, op=NEW
  *boundary, op=NEW
  *boundary, op=NEW
  *boundary, op=NEW
  *boundary, op=NEW
  *boundary, op=NEW
  *boundary, op=NEW
  *boundary, op=NEW
  *boundary, op=NEW
  *endstep
  *Step, name=free, nlgeom=YES, inc=1000
  *static
  *boundary, op=NEW
  *boundary, op=NEW
  *boundary, op=NEW
  *boundary, op=NEW
  *boundary, op=NEW
  *boundary, op=NEW
  *boundary, op=NEW
  *boundary, op=NEW
  *boundary, op=NEW
  *boundary, op=NEW
  *boundary, op=NEW
  *boundary, op=NEW
  *boundary, op=NEW
  *boundary, op=NEW
  *boundary, op=NEW
  *boundary, op=NEW
  *endstep



                            P R O B L E M   S I Z E


          NUMBER OF ELEMENTS IS                                521577
          NUMBER OF ELEMENTS DEFINED BY THE USER AND *TIE      421341
          NUMBER OF INTERNAL ELEMENTS GENERATED FOR CONTACT    100236
          NUMBER OF NODES IS                                   299126
          NUMBER OF NODES DEFINED BY THE USER                   98654
          NUMBER OF INTERNAL NODES GENERATED BY THE PROGRAM    200472
          TOTAL NUMBER OF VARIABLES IN THE MODEL               596670
          (DEGREES OF FREEDOM PLUS MAX NO. OF ANY LAGRANGE MULTIPLIER
           VARIABLES. INCLUDE *PRINT,SOLVE=YES TO GET THE ACTUAL NUMBER.)



                              END OF USER INPUT PROCESSING



     JOB TIME SUMMARY
       USER TIME (SEC)      =   19.400    
       SYSTEM TIME (SEC)    =   3.8000    
       TOTAL CPU TIME (SEC) =   23.200    
       WALLCLOCK TIME (SEC) =         23
1

   Abaqus 2020                                  Date 01-Mar-2023   Time 10:23:32
   For use by MONTANUNIVERSITAT LEOBEN under license from Dassault Systemes or its subsidiary.

                                                                                               STEP    1  INCREMENT    1
                                                                                          TIME COMPLETED IN THIS STEP   0.00    


                        S T E P       1     S T A T I C   A N A L Y S I S


                                                                                          

     AUTOMATIC TIME CONTROL WITH -
          A SUGGESTED INITIAL TIME INCREMENT OF                 1.00    
          AND A TOTAL TIME PERIOD OF                            1.00    
          THE MINIMUM TIME INCREMENT ALLOWED IS                1.000E-08
          THE MAXIMUM TIME INCREMENT ALLOWED IS                 1.00    

     LINEAR EQUATION SOLVER TYPE         DIRECT SPARSE

          LARGE DISPLACEMENT THEORY WILL BE USED



                    TOTAL MASS OF MODEL

                      2.3795455E-05


                    LOCATION OF THE CENTER OF MASS OF THE MODEL

                       27.97655           32.96816          6.8593942E-08


                    MOMENTS OF INERTIA ABOUT THE ORIGIN
                           I(XX)               I(YY)               I(ZZ)

                      3.5779296E-02      2.7049222E-02      6.2522445E-02


                    PRODUCTS OF INERTIA ABOUT THE ORIGIN
                           I(XY)               I(XZ)               I(YZ)

                     -2.1947644E-02     -9.8861569E-09     -6.5319697E-09


                    MOMENTS OF INERTIA ABOUT THE CENTER OF MASS
                           I(XX)               I(YY)               I(ZZ)

                      9.9160312E-03      8.4248253E-03      1.8034783E-02


                    PRODUCTS OF INERTIA ABOUT THE CENTER OF MASS
                           I(XY)               I(XZ)               I(YZ)

                     -2.5860022E-07     -9.8404929E-09     -6.4781583E-09
  
                   M E M O R Y   E S T I M A T E
  
 PROCESS      FLOATING PT       MINIMUM MEMORY        MEMORY TO
              OPERATIONS           REQUIRED          MINIMIZE I/O
             PER ITERATION           (MB)               (MB)
  
     1          2.08E+10              305               1328
  
 NOTE:
      (1) SINCE ABAQUS DOES NOT PRE-ALLOCATE MEMORY AND ONLY ALLOCATES MEMORY AS NEEDED DURING THE ANALYSIS,
          THE MEMORY REQUIREMENT PRINTED HERE CAN ONLY BE VIEWED AS A GENERAL GUIDELINE BASED ON THE BEST
          KNOWLEDGE AVAILABLE AT THE BEGINNING OF A STEP BEFORE THE SOLUTION PROCESS HAS BEGUN.
      (2) THE ESTIMATE IS NORMALLY UPDATED AT THE BEGINNING OF EVERY STEP. IT IS THE MAXIMUM VALUE OF THE
          ESTIMATE FROM THE CURRENT STEP TO THE LAST STEP OF THE ANALYSIS, WITH UNSYMMETRIC SOLUTION TAKEN
          INTO ACCOUNT IF APPLICABLE. 
      (3) SINCE THE ESTIMATE IS BASED ON THE ACTIVE DEGREES OF FREEDOM IN THE FIRST ITERATION OF THE 
          CURRENT STEP, THE MEMORY ESTIMATE MIGHT BE SIGNIFICANTLY DIFFERENT THAN ACTUAL USAGE FOR 
          PROBLEMS WITH SUBSTANTIAL CHANGES IN ACTIVE DEGREES OF FREEDOM BETWEEN STEPS (OR EVEN WITHIN
          THE SAME STEP). EXAMPLES ARE: PROBLEMS WITH SIGNIFICANT CONTACT CHANGES, PROBLEMS WITH MODEL
          CHANGE, PROBLEMS WITH BOTH STATIC STEP AND STEADY STATE DYNAMIC PROCEDURES WHERE ACOUSTIC 
          ELEMENTS WILL ONLY BE ACTIVATED IN THE STEADY STATE DYNAMIC STEPS.
      (4) FOR MULTI-PROCESS EXECUTION, THE ESTIMATED VALUE OF FLOATING POINT OPERATIONS FOR EACH PROCESS
          IS BASED ON AN INITIAL SCHEDULING OF OPERATIONS AND MIGHT NOT REFLECT THE ACTUAL FLOATING 
          POINT OPERATIONS COMPLETED ON EACH PROCESS. OPERATIONS ARE DYNAMICALLY BALANCED DURING EXECUTION, 
          SO THE ACTUAL BALANCE OF OPERATIONS BETWEEN PROCESSES IS EXPECTED TO BE BETTER THAN THE ESTIMATE
          PRINTED HERE.
      (5) THE UPPER LIMIT OF MEMORY THAT CAN BE ALLOCATED BY ABAQUS WILL IN GENERAL DEPEND ON THE VALUE OF
          THE "MEMORY" PARAMETER AND THE AMOUNT OF PHYSICAL MEMORY AVAILABLE ON THE MACHINE. PLEASE SEE
          THE "ABAQUS ANALYSIS USER'S MANUAL" FOR MORE DETAILS. THE ACTUAL USAGE OF MEMORY AND OF DISK
          SPACE FOR SCRATCH DATA WILL DEPEND ON THIS UPPER LIMIT AS WELL AS THE MEMORY REQUIRED TO MINIMIZE
          I/O. IF THE MEMORY UPPER LIMIT IS GREATER THAN THE MEMORY REQUIRED TO MINIMIZE I/O, THEN THE ACTUAL
          MEMORY USAGE WILL BE CLOSE TO THE ESTIMATED "MEMORY TO MINIMIZE I/O" VALUE, AND THE SCRATCH DISK
          USAGE WILL BE CLOSE-TO-ZERO; OTHERWISE, THE ACTUAL MEMORY USED WILL BE CLOSE TO THE PREVIOUSLY
          MENTIONED MEMORY LIMIT, AND THE SCRATCH DISK USAGE WILL BE ROUGHLY PROPORTIONAL TO THE DIFFERENCE
          BETWEEN THE ESTIMATED "MEMORY TO MINIMIZE I/O" AND THE MEMORY UPPER LIMIT. HOWEVER ACCURATE
          ESTIMATE OF THE SCRATCH DISK SPACE IS NOT POSSIBLE.
      (6) USING "*RESTART, WRITE" CAN GENERATE A LARGE AMOUNT OF DATA WRITTEN IN THE WORK DIRECTORY.
1

   Abaqus 2020                                  Date 01-Mar-2023   Time 10:24:17
   For use by MONTANUNIVERSITAT LEOBEN under license from Dassault Systemes or its subsidiary.

                                                                                               STEP    2  INCREMENT    1
                                                                                          TIME COMPLETED IN THIS STEP   0.00    


                        S T E P       2     S T A T I C   A N A L Y S I S


                                                                                          

     AUTOMATIC TIME CONTROL WITH -
          A SUGGESTED INITIAL TIME INCREMENT OF                 1.00    
          AND A TOTAL TIME PERIOD OF                            1.00    
          THE MINIMUM TIME INCREMENT ALLOWED IS                1.000E-08
          THE MAXIMUM TIME INCREMENT ALLOWED IS                 1.00    

     LINEAR EQUATION SOLVER TYPE         DIRECT SPARSE

          LARGE DISPLACEMENT THEORY WILL BE USED

   NOTE:  THE FOLLOWING CENTER OF MASS AND MOMENT OF INERTIA CALCULATIONS ARE BASED ON CURRENT POSITION



                    TOTAL MASS OF MODEL

                      2.3795455E-05


                    LOCATION OF THE CENTER OF MASS OF THE MODEL

                       27.97653           32.96848         -9.7584567E-06


                    MOMENTS OF INERTIA ABOUT THE ORIGIN
                           I(XX)               I(YY)               I(ZZ)

                      3.5780130E-02      2.7050259E-02      6.2523629E-02


                    PRODUCTS OF INERTIA ABOUT THE ORIGIN
                           I(XY)               I(XZ)               I(YZ)

                     -2.1947845E-02     -6.8472435E-09      1.0852232E-09


                    MOMENTS OF INERTIA ABOUT THE CENTER OF MASS
                           I(XX)               I(YY)               I(ZZ)

                      9.9163539E-03      8.4258817E-03      1.8035475E-02


                    PRODUCTS OF INERTIA ABOUT THE CENTER OF MASS
                           I(XY)               I(XZ)               I(YZ)

                     -2.5460890E-07     -1.3343588E-08     -6.5702867E-09
  
                   M E M O R Y   E S T I M A T E
  
 PROCESS      FLOATING PT       MINIMUM MEMORY        MEMORY TO
              OPERATIONS           REQUIRED          MINIMIZE I/O
             PER ITERATION           (MB)               (MB)
  
     1          6.21E+10              328               1572
  
 NOTE:
      (1) SINCE ABAQUS DOES NOT PRE-ALLOCATE MEMORY AND ONLY ALLOCATES MEMORY AS NEEDED DURING THE ANALYSIS,
          THE MEMORY REQUIREMENT PRINTED HERE CAN ONLY BE VIEWED AS A GENERAL GUIDELINE BASED ON THE BEST
          KNOWLEDGE AVAILABLE AT THE BEGINNING OF A STEP BEFORE THE SOLUTION PROCESS HAS BEGUN.
      (2) THE ESTIMATE IS NORMALLY UPDATED AT THE BEGINNING OF EVERY STEP. IT IS THE MAXIMUM VALUE OF THE
          ESTIMATE FROM THE CURRENT STEP TO THE LAST STEP OF THE ANALYSIS, WITH UNSYMMETRIC SOLUTION TAKEN
          INTO ACCOUNT IF APPLICABLE. 
      (3) SINCE THE ESTIMATE IS BASED ON THE ACTIVE DEGREES OF FREEDOM IN THE FIRST ITERATION OF THE 
          CURRENT STEP, THE MEMORY ESTIMATE MIGHT BE SIGNIFICANTLY DIFFERENT THAN ACTUAL USAGE FOR 
          PROBLEMS WITH SUBSTANTIAL CHANGES IN ACTIVE DEGREES OF FREEDOM BETWEEN STEPS (OR EVEN WITHIN
          THE SAME STEP). EXAMPLES ARE: PROBLEMS WITH SIGNIFICANT CONTACT CHANGES, PROBLEMS WITH MODEL
          CHANGE, PROBLEMS WITH BOTH STATIC STEP AND STEADY STATE DYNAMIC PROCEDURES WHERE ACOUSTIC 
          ELEMENTS WILL ONLY BE ACTIVATED IN THE STEADY STATE DYNAMIC STEPS.
      (4) FOR MULTI-PROCESS EXECUTION, THE ESTIMATED VALUE OF FLOATING POINT OPERATIONS FOR EACH PROCESS
          IS BASED ON AN INITIAL SCHEDULING OF OPERATIONS AND MIGHT NOT REFLECT THE ACTUAL FLOATING 
          POINT OPERATIONS COMPLETED ON EACH PROCESS. OPERATIONS ARE DYNAMICALLY BALANCED DURING EXECUTION, 
          SO THE ACTUAL BALANCE OF OPERATIONS BETWEEN PROCESSES IS EXPECTED TO BE BETTER THAN THE ESTIMATE
          PRINTED HERE.
      (5) THE UPPER LIMIT OF MEMORY THAT CAN BE ALLOCATED BY ABAQUS WILL IN GENERAL DEPEND ON THE VALUE OF
          THE "MEMORY" PARAMETER AND THE AMOUNT OF PHYSICAL MEMORY AVAILABLE ON THE MACHINE. PLEASE SEE
          THE "ABAQUS ANALYSIS USER'S MANUAL" FOR MORE DETAILS. THE ACTUAL USAGE OF MEMORY AND OF DISK
          SPACE FOR SCRATCH DATA WILL DEPEND ON THIS UPPER LIMIT AS WELL AS THE MEMORY REQUIRED TO MINIMIZE
          I/O. IF THE MEMORY UPPER LIMIT IS GREATER THAN THE MEMORY REQUIRED TO MINIMIZE I/O, THEN THE ACTUAL
          MEMORY USAGE WILL BE CLOSE TO THE ESTIMATED "MEMORY TO MINIMIZE I/O" VALUE, AND THE SCRATCH DISK
          USAGE WILL BE CLOSE-TO-ZERO; OTHERWISE, THE ACTUAL MEMORY USED WILL BE CLOSE TO THE PREVIOUSLY
          MENTIONED MEMORY LIMIT, AND THE SCRATCH DISK USAGE WILL BE ROUGHLY PROPORTIONAL TO THE DIFFERENCE
          BETWEEN THE ESTIMATED "MEMORY TO MINIMIZE I/O" AND THE MEMORY UPPER LIMIT. HOWEVER ACCURATE
          ESTIMATE OF THE SCRATCH DISK SPACE IS NOT POSSIBLE.
      (6) USING "*RESTART, WRITE" CAN GENERATE A LARGE AMOUNT OF DATA WRITTEN IN THE WORK DIRECTORY.
1

   Abaqus 2020                                  Date 01-Mar-2023   Time 10:26:20
   For use by MONTANUNIVERSITAT LEOBEN under license from Dassault Systemes or its subsidiary.

                                                                                               STEP    3  INCREMENT    1
                                                                                          TIME COMPLETED IN THIS STEP   0.00    


                        S T E P       3     S T A T I C   A N A L Y S I S


                                                                                          

     AUTOMATIC TIME CONTROL WITH -
          A SUGGESTED INITIAL TIME INCREMENT OF                 1.00    
          AND A TOTAL TIME PERIOD OF                            1.00    
          THE MINIMUM TIME INCREMENT ALLOWED IS                1.000E-08
          THE MAXIMUM TIME INCREMENT ALLOWED IS                 1.00    

     LINEAR EQUATION SOLVER TYPE         DIRECT SPARSE

          LARGE DISPLACEMENT THEORY WILL BE USED
  
                   M E M O R Y   E S T I M A T E
  
 PROCESS      FLOATING PT       MINIMUM MEMORY        MEMORY TO
              OPERATIONS           REQUIRED          MINIMIZE I/O
             PER ITERATION           (MB)               (MB)
  
     1          6.79E+10              330               1597
  
 NOTE:
      (1) SINCE ABAQUS DOES NOT PRE-ALLOCATE MEMORY AND ONLY ALLOCATES MEMORY AS NEEDED DURING THE ANALYSIS,
          THE MEMORY REQUIREMENT PRINTED HERE CAN ONLY BE VIEWED AS A GENERAL GUIDELINE BASED ON THE BEST
          KNOWLEDGE AVAILABLE AT THE BEGINNING OF A STEP BEFORE THE SOLUTION PROCESS HAS BEGUN.
      (2) THE ESTIMATE IS NORMALLY UPDATED AT THE BEGINNING OF EVERY STEP. IT IS THE MAXIMUM VALUE OF THE
          ESTIMATE FROM THE CURRENT STEP TO THE LAST STEP OF THE ANALYSIS, WITH UNSYMMETRIC SOLUTION TAKEN
          INTO ACCOUNT IF APPLICABLE. 
      (3) SINCE THE ESTIMATE IS BASED ON THE ACTIVE DEGREES OF FREEDOM IN THE FIRST ITERATION OF THE 
          CURRENT STEP, THE MEMORY ESTIMATE MIGHT BE SIGNIFICANTLY DIFFERENT THAN ACTUAL USAGE FOR 
          PROBLEMS WITH SUBSTANTIAL CHANGES IN ACTIVE DEGREES OF FREEDOM BETWEEN STEPS (OR EVEN WITHIN
          THE SAME STEP). EXAMPLES ARE: PROBLEMS WITH SIGNIFICANT CONTACT CHANGES, PROBLEMS WITH MODEL
          CHANGE, PROBLEMS WITH BOTH STATIC STEP AND STEADY STATE DYNAMIC PROCEDURES WHERE ACOUSTIC 
          ELEMENTS WILL ONLY BE ACTIVATED IN THE STEADY STATE DYNAMIC STEPS.
      (4) FOR MULTI-PROCESS EXECUTION, THE ESTIMATED VALUE OF FLOATING POINT OPERATIONS FOR EACH PROCESS
          IS BASED ON AN INITIAL SCHEDULING OF OPERATIONS AND MIGHT NOT REFLECT THE ACTUAL FLOATING 
          POINT OPERATIONS COMPLETED ON EACH PROCESS. OPERATIONS ARE DYNAMICALLY BALANCED DURING EXECUTION, 
          SO THE ACTUAL BALANCE OF OPERATIONS BETWEEN PROCESSES IS EXPECTED TO BE BETTER THAN THE ESTIMATE
          PRINTED HERE.
      (5) THE UPPER LIMIT OF MEMORY THAT CAN BE ALLOCATED BY ABAQUS WILL IN GENERAL DEPEND ON THE VALUE OF
          THE "MEMORY" PARAMETER AND THE AMOUNT OF PHYSICAL MEMORY AVAILABLE ON THE MACHINE. PLEASE SEE
          THE "ABAQUS ANALYSIS USER'S MANUAL" FOR MORE DETAILS. THE ACTUAL USAGE OF MEMORY AND OF DISK
          SPACE FOR SCRATCH DATA WILL DEPEND ON THIS UPPER LIMIT AS WELL AS THE MEMORY REQUIRED TO MINIMIZE
          I/O. IF THE MEMORY UPPER LIMIT IS GREATER THAN THE MEMORY REQUIRED TO MINIMIZE I/O, THEN THE ACTUAL
          MEMORY USAGE WILL BE CLOSE TO THE ESTIMATED "MEMORY TO MINIMIZE I/O" VALUE, AND THE SCRATCH DISK
          USAGE WILL BE CLOSE-TO-ZERO; OTHERWISE, THE ACTUAL MEMORY USED WILL BE CLOSE TO THE PREVIOUSLY
          MENTIONED MEMORY LIMIT, AND THE SCRATCH DISK USAGE WILL BE ROUGHLY PROPORTIONAL TO THE DIFFERENCE
          BETWEEN THE ESTIMATED "MEMORY TO MINIMIZE I/O" AND THE MEMORY UPPER LIMIT. HOWEVER ACCURATE
          ESTIMATE OF THE SCRATCH DISK SPACE IS NOT POSSIBLE.
      (6) USING "*RESTART, WRITE" CAN GENERATE A LARGE AMOUNT OF DATA WRITTEN IN THE WORK DIRECTORY.


          THE ANALYSIS HAS BEEN COMPLETED



                              ANALYSIS COMPLETE
                              WITH      1 WARNING MESSAGES ON THE DAT FILE
                              AND       1 WARNING MESSAGES ON THE MSG FILE



     JOB TIME SUMMARY
       USER TIME (SEC)      =   894.10    
       SYSTEM TIME (SEC)    =   25.700    
       TOTAL CPU TIME (SEC) =   919.80    
       WALLCLOCK TIME (SEC) =        307
